1
    SWAT Jun 01 2011    VER 2009/Rev. 481                                                                0/ 0/   0      0: 0: 0

    General Input/Output section (file.cio):                                        
    11/14/2011 12:00:00 AM ARCGIS-SWAT interface AV                                 
                                                                                    


LULC HRU      GIS  SUB  MGT  MON   AREAkm2  PNDPCPmm  PND_INmmPSED_It/ha  PNDEVPmm  PNDSEPmm PND_OUTmmPSED_Ot/ha PNDVOLm^3PNDORGNppm PNDNO3ppmPNDORGPppmPNDMINPppmPNDCHLAppm  PNDSECIm  WETPCPmm  WET_INmmWSED_It/ha  WETEVPmm  WETSEPmm WET_OUTmmWSED_Ot/ha WETVOLm^3WETORGNppm WETNO3ppmWETORGPppmWETMINPppmWETCHLAppm  WETSECIm  POTPCPmm  POT_INmmOSED_It/ha  POTEVPmm  POTSEPmm POT_OUTmmOSED_Ot/ha POTVOLm^3  POT_SAhaHRU_SURQmmPLANT_ETmm SOIL_ETmm
