1
    SWAT May 6 2015    VER 2015/Rev 637                                                                  0/ 0/   0      0: 0: 0

    General Input/Output section (file.cio):                                        
    11/27/2018 12:00:00 AM ARCGIS-SWAT interface AV                                 
                                                                                    
         Number of years in run:   13
         Area of watershed:       21.963 km2
1
    SWAT May 6 2015    VER 2015/Rev 637                                             

    General Input/Output section (file.cio):                                        
    11/27/2018 12:00:00 AM ARCGIS-SWAT interface AV                                 
                                                                                    
Annual Summary for Watershed in year    1 of simulation

UNIT                                    PERCO    TILE                           WATER     SED     NO3     NO3     NO3     NO3        N       P       P
TIME     PREC    SURQ    LATQ     GWQ    LATE       Q     SW       ET     PET   YIELD   YIELD    SURQ    LATQ    PERC    CROP  ORGANIC SOLUBLE ORGANIC TILENO3
         (mm)    (mm)    (mm)    (mm)    (mm)    (mm)    (mm)    (mm)    (mm)    (mm)    (mm)   ------------------(kg nutrient/ha)-------------------- (kg/ha)
1
    SWAT May 6 2015    VER 2015/Rev 637                                             

    General Input/Output section (file.cio):                                        
    11/27/2018 12:00:00 AM ARCGIS-SWAT interface AV                                 
                                                                                    
Annual Summary for Watershed in year    2 of simulation

UNIT                                    PERCO    TILE                           WATER     SED     NO3     NO3     NO3     NO3        N       P       P
TIME     PREC    SURQ    LATQ     GWQ    LATE       Q     SW       ET     PET   YIELD   YIELD    SURQ    LATQ    PERC    CROP  ORGANIC SOLUBLE ORGANIC TILENO3
         (mm)    (mm)    (mm)    (mm)    (mm)    (mm)    (mm)    (mm)    (mm)    (mm)    (mm)   ------------------(kg nutrient/ha)-------------------- (kg/ha)
1
    SWAT May 6 2015    VER 2015/Rev 637                                             

    General Input/Output section (file.cio):                                        
    11/27/2018 12:00:00 AM ARCGIS-SWAT interface AV                                 
                                                                                    
Annual Summary for Watershed in year    3 of simulation

UNIT                                    PERCO    TILE                           WATER     SED     NO3     NO3     NO3     NO3        N       P       P
TIME     PREC    SURQ    LATQ     GWQ    LATE       Q     SW       ET     PET   YIELD   YIELD    SURQ    LATQ    PERC    CROP  ORGANIC SOLUBLE ORGANIC TILENO3
         (mm)    (mm)    (mm)    (mm)    (mm)    (mm)    (mm)    (mm)    (mm)    (mm)    (mm)   ------------------(kg nutrient/ha)-------------------- (kg/ha)
1
    SWAT May 6 2015    VER 2015/Rev 637                                             

    General Input/Output section (file.cio):                                        
    11/27/2018 12:00:00 AM ARCGIS-SWAT interface AV                                 
                                                                                    
Annual Summary for Watershed in year    4 of simulation

UNIT                                    PERCO    TILE                           WATER     SED     NO3     NO3     NO3     NO3        N       P       P
TIME     PREC    SURQ    LATQ     GWQ    LATE       Q     SW       ET     PET   YIELD   YIELD    SURQ    LATQ    PERC    CROP  ORGANIC SOLUBLE ORGANIC TILENO3
         (mm)    (mm)    (mm)    (mm)    (mm)    (mm)    (mm)    (mm)    (mm)    (mm)    (mm)   ------------------(kg nutrient/ha)-------------------- (kg/ha)
    1    4.30    0.01    0.25    1.21    3.70    0.00  184.62    0.73    1.02    1.59    0.00    0.00    0.01    0.38    0.00     0.00    0.00    0.00    0.00
    2    0.38    0.00    0.18    1.23    0.48    0.00  183.24    1.32    1.82    1.46    0.00    0.00    0.00    0.02    0.00     0.00    0.00    0.00    0.00
    3    0.00    0.00    0.13    1.25    0.18    0.00  182.44    0.63    1.27    1.42    0.00    0.00    0.00    0.01    0.00     0.00    0.00    0.00    0.00
    4    0.00    0.00    0.09    1.27    0.09    0.00  181.70    0.71    1.54    1.40    0.00    0.00    0.00    0.00    0.00     0.00    0.00    0.00    0.00
    5    0.00    0.00    0.07    1.28    0.04    0.00  180.99    0.72    1.71    1.39    0.00    0.00    0.00    0.00    0.00     0.00    0.00    0.00    0.00
    6    0.00    0.00    0.05    1.29    0.02    0.00  180.20    0.83    2.15    1.38    0.00    0.00    0.00    0.00    0.00     0.00    0.00    0.00    0.00
    7    0.00    0.00    0.04    1.29    0.01    0.00  179.53    0.71    1.96    1.37    0.00    0.00    0.00    0.00    0.00     0.00    0.00    0.00    0.00
    8    0.00    0.00    0.03    1.30    0.01    0.00  178.60    0.99    2.90    1.37    0.00    0.00    0.00    0.00    0.00     0.00    0.00    0.00    0.00
    9    0.00    0.00    0.02    1.30    0.00    0.00  177.75    0.91    2.85    1.36    0.00    0.00    0.00    0.00    0.00     0.00    0.00    0.00    0.00
   10    0.00    0.00    0.02    1.30    0.00    0.00  177.09    0.70    2.38    1.36    0.00    0.00    0.00    0.00    0.00     0.00    0.00    0.00    0.00
   11    0.00    0.00    0.01    1.30    0.00    0.00  176.38    0.77    2.71    1.35    0.00    0.00    0.00    0.00    0.00     0.00    0.00    0.00    0.00
   12    0.00    0.00    0.01    1.30    0.00    0.00  175.80    0.60    2.28    1.35    0.00    0.00    0.00    0.00    0.00     0.00    0.00    0.00    0.00
   13    0.00    0.00    0.01    1.29    0.00    0.00  175.41    0.42    1.62    1.34    0.00    0.00    0.00    0.00    0.00     0.00    0.00    0.00    0.00
   14    0.00    0.00    0.01    1.28    0.00    0.00  174.85    0.62    2.40    1.33    0.00    0.00    0.00    0.00    0.00     0.00    0.00    0.00    0.00
   15    0.00    0.00    0.00    1.27    0.00    0.00  174.28    0.63    2.54    1.32    0.00    0.00    0.00    0.00    0.00     0.00    0.00    0.00    0.00
   16    1.31    0.00    0.01    1.27    0.00    0.00  174.50    1.10    2.24    1.31    0.00    0.00    0.00    0.00    0.00     0.00    0.00    0.00    0.00
   17    0.12    0.00    0.01    1.25    0.00    0.00  173.93    0.73    2.23    1.30    0.00    0.00    0.00    0.00    0.00     0.00    0.00    0.00    0.00
   18    0.00    0.00    0.00    1.24    0.00    0.00  173.47    0.51    1.94    1.29    0.00    0.00    0.00    0.00    0.00     0.00    0.00    0.00    0.00
   19    0.00    0.00    0.00    1.23    0.00    0.00  172.88    0.65    2.73    1.28    0.00    0.00    0.00    0.00    0.00     0.00    0.00    0.00    0.00
   20    0.00    0.00    0.00    1.22    0.00    0.00  172.30    0.65    2.89    1.26    0.00    0.00    0.00    0.00    0.00     0.00    0.00    0.00    0.00
   21    0.00    0.00    0.00    1.20    0.00    0.00  171.99    0.35    1.58    1.25    0.00    0.00    0.00    0.00    0.00     0.00    0.00    0.00    0.00
   22    1.45    0.00    0.01    1.19    0.00    0.00  173.00    0.43    0.67    1.24    0.00    0.00    0.00    0.00    0.00     0.00    0.00    0.00    0.00
   23    0.12    0.00    0.00    1.17    0.00    0.00  172.19    0.97    2.52    1.22    0.00    0.00    0.00    0.00    0.00     0.00    0.00    0.00    0.00
   24    0.00    0.00    0.00    1.16    0.00    0.00  171.75    0.49    1.86    1.20    0.00    0.00    0.00    0.00    0.00     0.00    0.00    0.00    0.00
   25    0.00    0.00    0.00    1.14    0.00    0.00  171.54    0.25    1.03    1.18    0.00    0.00    0.00    0.00    0.00     0.00    0.00    0.00    0.00
   26    0.00    0.00    0.00    1.12    0.00    0.00  171.13    0.46    2.08    1.17    0.00    0.00    0.00    0.00    0.00     0.00    0.00    0.00    0.00
   27    0.00    0.00    0.00    1.10    0.00    0.00  170.71    0.48    2.26    1.15    0.00    0.00    0.00    0.00    0.00     0.00    0.00    0.00    0.00
   28    0.00    0.00    0.00    1.09    0.00    0.00  170.29    0.48    2.33    1.13    0.00    0.00    0.00    0.00    0.00     0.00    0.00    0.00    0.00
   29    0.00    0.00    0.00    1.07    0.00    0.00  169.61    0.75    3.85    1.11    0.00    0.00    0.00    0.00    0.00     0.00    0.00    0.00    0.00
   30    1.70    0.00    0.00    1.05    0.00    0.00  170.94    0.34    0.53    1.10    0.00    0.00    0.00    0.00    0.00     0.00    0.00    0.00    0.00
   31    0.00    0.00    0.00    1.03    0.00    0.00  170.41    0.59    1.49    1.08    0.00    0.00    0.00    0.00    0.00     0.00    0.00    0.00    0.00
    1    9.38    0.01    0.98   37.70    4.53    0.00  170.41   20.53   63.37   40.06    0.00    0.00    0.03    0.42    0.00     0.00    0.00    0.00    0.00
   32    0.00    0.00    0.00    1.01    0.00    0.00  169.72    0.76    2.97    1.06    0.00    0.00    0.00    0.00    0.00     0.00    0.00    0.00    0.00
   33    0.00    0.00    0.00    1.00    0.00    0.00  169.27    0.53    2.41    1.04    0.00    0.00    0.00    0.00    0.00     0.00    0.00    0.00    0.00
   34    0.00    0.00    0.00    0.98    0.00    0.00  169.15    0.15    0.67    1.02    0.00    0.00    0.00    0.00    0.00     0.00    0.00    0.00    0.00
   35    1.43    0.00    0.00    0.96    0.00    0.00  169.53    1.07    2.54    1.01    0.00    0.00    0.00    0.00    0.00     0.00    0.00    0.00    0.00
   36    0.00    0.00    0.00    0.94    0.00    0.00  168.88    0.72    3.08    0.99    0.00    0.00    0.00    0.00    0.00     0.00    0.00    0.00    0.00
   37   18.35    2.04    0.11    0.92    1.07    0.00  182.27    1.08    1.26    3.08    0.07    0.04    0.00    0.02    0.00     0.09    0.00    0.01    0.00
   38    0.73    0.00    0.08    0.91    0.07    0.00  182.69    0.22    0.26    1.05    0.00    0.00    0.00    0.00    0.00     0.00    0.00    0.00    0.00
   39    0.00    0.00    0.05    0.89    0.02    0.00  181.34    1.39    1.93    0.99    0.00    0.00    0.00    0.00    0.00     0.00    0.00    0.00    0.00
   40    0.57    0.00    0.04    0.87    0.01    0.00  180.72    1.21    1.65    0.95    0.00    0.00    0.00    0.00    0.00     0.00    0.00    0.00    0.00
   41    5.35    0.03    0.07    0.86    1.57    0.00  182.48    1.79    2.38    1.00    0.00    0.00    0.00    0.07    0.00     0.00    0.00    0.00    0.00
   42    0.00    0.00    0.05    0.84    0.11    0.00  181.22    1.23    2.40    0.94    0.00    0.00    0.00    0.00    0.00     0.00    0.00    0.00    0.00
   43    0.00    0.00    0.04    0.83    0.03    0.00  179.86    1.40    3.27    0.91    0.00    0.00    0.00    0.00    0.00     0.00    0.00    0.00    0.00
   44    0.00    0.00    0.03    0.81    0.02    0.00  178.64    1.30    3.43    0.88    0.00    0.00    0.00    0.00    0.00     0.00    0.00    0.00    0.00
   45    0.00    0.00    0.02    0.80    0.01    0.00  177.51    1.19    3.51    0.86    0.00    0.00    0.00    0.00    0.00     0.00    0.00    0.00    0.00
   46    0.00    0.00    0.01    0.78    0.00    0.00  176.55    1.04    3.32    0.84    0.00    0.00    0.00    0.00    0.00     0.00    0.00    0.00    0.00
   47   30.27    7.49    0.26    0.78   11.89    0.00  183.61    2.22    3.14    8.48    0.26    0.07    0.01    1.29    0.00     0.33    0.01    0.05    0.00
   48    0.19    0.00    0.19    0.79    0.81    0.00  182.73    0.27    0.46    1.11    0.00    0.00    0.01    0.04    0.00     0.00    0.00    0.00    0.00
   49    0.00    0.00    0.13    0.79    0.26    0.00  181.81    0.72    1.30    0.96    0.00    0.00    0.00    0.01    0.00     0.00    0.00    0.00    0.00
   50    0.11    0.00    0.10    0.79    0.12    0.00  180.78    1.10    2.17    0.92    0.00    0.00    0.00    0.00    0.00     0.00    0.00    0.00    0.00
   51    0.00    0.00    0.07    0.79    0.06    0.00  180.23    0.52    1.22    0.90    0.00    0.00    0.00    0.00    0.00     0.00    0.00    0.00    0.00
   52    0.00    0.00    0.05    0.78    0.03    0.00  179.91    0.33    0.80    0.87    0.00    0.00    0.00    0.00    0.00     0.00    0.00    0.00    0.00
   53   19.98    3.14    0.23    0.79    9.97    0.00  184.61    1.01    1.13    4.17    0.13    0.04    0.01    1.22    0.00     0.16    0.00    0.03    0.00
   54    0.42    0.00    0.17    0.80    0.69    0.00  182.21    2.22    3.39    1.05    0.00    0.00    0.01    0.04    0.00     0.00    0.00    0.00    0.00
   55    0.00    0.00    0.12    0.81    0.21    0.00  180.80    1.28    2.71    0.97    0.00    0.00    0.00    0.01    0.00     0.00    0.00    0.00    0.00
   56    0.00    0.00    0.08    0.82    0.09    0.00  179.74    1.06    2.60    0.94    0.00    0.00    0.00    0.00    0.00     0.00    0.00    0.00    0.00
   57    9.07    0.25    0.14    0.83    3.18    0.00  183.53    1.41    1.65    1.26    0.01    0.01    0.00    0.35    0.00     0.01    0.00    0.00    0.00
   58   15.67    1.77    0.28    0.85   10.63    0.00  183.89    1.90    2.53    2.92    0.05    0.01    0.01    1.38    0.00     0.07    0.00    0.01    0.00
   59    0.00    0.00    0.20    0.87    0.79    0.00  182.36    0.80    1.49    1.14    0.00    0.00    0.01    0.05    0.00     0.00    0.00    0.00    0.00
    2  102.13   14.73    2.53   23.88   41.62    0.00  182.36   29.90   59.66   42.30    0.52    0.17    0.07    4.48    0.00     0.67    0.01    0.10    0.00
   60   24.00    4.95    0.39    0.91   13.74    0.00  184.33    1.89    2.51    6.23    0.18    0.02    0.01    1.77    0.00     0.21    0.00    0.03    0.00
   61    2.14    0.00    0.29    0.94    1.51    0.00  184.10    0.81    0.90    1.34    0.00    0.00    0.01    0.10    0.00     0.00    0.00    0.00    0.00
   62    3.98    0.00    0.25    0.97    2.72    0.00  184.01    1.12    1.25    1.28    0.00    0.00    0.01    0.30    0.00     0.00    0.00    0.00    0.00
   63    5.84    0.03    0.25    1.01    4.24    0.00  182.99    2.21    3.07    1.34    0.00    0.00    0.01    0.52    0.00     0.00    0.00    0.00    0.00
   64    1.64    0.00    0.19    1.04    0.46    0.00  183.13    1.03    1.16    1.27    0.00    0.00    0.00    0.03    0.00     0.00    0.00    0.00    0.00
   65    1.21    0.00    0.14    1.07    0.49    0.00  183.45    0.38    0.43    1.26    0.00    0.00    0.00    0.03    0.00     0.00    0.00    0.00    0.00
   66   18.72    2.81    0.32    1.11   12.23    0.00  184.80    1.17    1.30    4.25    0.09    0.01    0.01    1.60    0.00     0.11    0.00    0.02    0.00
   67    0.12    0.00    0.23    1.15    0.88    0.00  182.91    1.18    1.89    1.47    0.00    0.00    0.01    0.06    0.00     0.00    0.00    0.00    0.00
   68    4.77    0.01    0.21    1.19    2.42    0.00  184.18    0.84    0.94    1.46    0.00    0.00    0.00    0.27    0.00     0.00    0.00    0.00    0.00
   69    0.00    0.00    0.15    1.22    0.28    0.00  181.94    2.08    3.52    1.42    0.00    0.00    0.00    0.02    0.00     0.00    0.00    0.00    0.00
   70    0.00    0.00    0.11    1.25    0.10    0.00  180.63    1.30    2.82    1.41    0.00    0.00    0.00    0.01    0.00     0.00    0.00    0.00    0.00
   71    0.00    0.00    0.08    1.28    0.05    0.00  179.38    1.29    3.20    1.41    0.00    0.00    0.00    0.00    0.00     0.00    0.00    0.00    0.00
   72    4.94    0.01    0.08    1.30    0.23    0.00  181.76    2.21    3.11    1.44    0.00    0.00    0.00    0.02    0.00     0.00    0.00    0.00    0.00
   73    0.38    0.00    0.06    1.32    0.03    0.00  181.22    0.93    1.32    1.42    0.00    0.00    0.00    0.00    0.00     0.00    0.00    0.00    0.00
   74   13.41    1.09    0.19    1.34    7.41    0.00  184.71    0.62    0.68    2.65    0.04    0.01    0.00    0.94    0.00     0.05    0.00    0.01    0.00
   75    0.45    0.00    0.13    1.37    0.50    0.00  182.75    1.98    2.64    1.56    0.00    0.00    0.00    0.03    0.00     0.00    0.00    0.00    0.00
   76   24.54    5.21    0.35    1.40   14.38    0.00  185.38    0.84    0.93    6.95    0.26    0.02    0.01    1.80    0.00     0.28    0.00    0.04    0.00
   77    1.18    0.00    0.26    1.44    1.61    0.00  183.33    1.62    2.10    1.82    0.00    0.00    0.01    0.15    0.00     0.00    0.00    0.00    0.00
   78    5.10    0.01    0.24    1.48    3.02    0.00  183.70    1.45    1.70    1.78    0.00    0.00    0.00    0.35    0.00     0.00    0.00    0.00    0.00
   79   28.86    7.50    0.47    1.53   16.76    0.00  185.14    1.48    1.73    9.46    0.29    0.02    0.01    1.96    0.00     0.33    0.00    0.05    0.00
   80    0.00    0.00    0.33    1.58    1.26    0.00  181.59    2.41    4.50    2.06    0.00    0.00    0.01    0.07    0.00     0.00    0.00    0.00    0.00
   81    0.00    0.00    0.24    1.62    0.41    0.00  179.65    1.66    3.94    1.92    0.00    0.00    0.00    0.02    0.00     0.00    0.00    0.00    0.00
   82    0.00    0.00    0.17    1.66    0.18    0.00  178.36    1.20    3.25    1.89    0.00    0.00    0.00    0.01    0.00     0.00    0.00    0.00    0.00
   83    0.00    0.00    0.12    1.69    0.09    0.00  176.96    1.44    4.27    1.87    0.00    0.00    0.00    0.01    0.00     0.00    0.00    0.00    0.00
   84    0.00    0.00    0.09    1.72    0.04    0.00  175.68    1.36    4.40    1.87    0.00    0.00    0.00    0.00    0.00     0.00    0.00    0.00    0.00
   85    0.00    0.00    0.07    1.74    0.02    0.00  174.61    1.17    4.12    1.87    0.00    0.00    0.00    0.00    0.00     0.00    0.00    0.00    0.00
   86    0.00    0.00    0.05    1.76    0.01    0.00  173.96    0.72    2.68    1.87    0.00    0.00    0.00    0.00    0.00     0.00    0.00    0.00    0.00
   87    0.00    0.00    0.04    1.78    0.01    0.00  173.59    0.41    1.59    1.87    0.00    0.00    0.00    0.00    0.00     0.00    0.00    0.00    0.00
   88    0.00    0.00    0.03    1.79    0.00    0.00  172.79    0.90    3.56    1.88    0.00    0.00    0.00    0.00    0.00     0.00    0.00    0.00    0.00
   89    6.89    0.06    0.04    1.80    0.00    0.00  177.52    1.93    3.09    1.96    0.00    0.00    0.00    0.00    0.01     0.00    0.00    0.00    0.00
   90    0.00    0.00    0.03    1.80    0.00    0.00  175.88    1.75    4.13    1.89    0.00    0.00    0.00    0.00    0.00     0.00    0.00    0.00    0.00
    3  148.16   21.70    5.62   43.29   85.08    0.00  175.88   41.38   76.74   72.17    0.87    0.08    0.12   10.07    0.01     1.00    0.01    0.15    0.00
   91    0.00    0.00    0.02    1.80    0.00    0.00  174.46    1.54    4.25    1.89    0.00    0.00    0.00    0.00    0.06     0.00    0.00    0.00    0.00
   92    0.00    0.00    0.02    1.80    0.00    0.00  172.92    1.66    4.97    1.88    0.00    0.00    0.00    0.00    0.17     0.00    0.00    0.00    0.00
   93    0.00    0.00    0.01    1.80    0.00    0.00  171.79    1.25    4.18    1.87    0.00    0.00    0.00    0.00    0.22     0.00    0.00    0.00    0.00
   94    0.00    0.00    0.01    1.79    0.00    0.00  170.77    1.15    4.07    1.86    0.00    0.00    0.00    0.00    0.40     0.00    0.00    0.00    0.00
   95    1.63    0.00    0.01    1.78    0.00    0.00  171.31    1.10    2.05    1.86    0.00    0.00    0.00    0.00    0.28     0.00    0.00    0.00    0.00
   96    0.00    0.00    0.01    1.77    0.00    0.00  170.31    1.09    3.47    1.84    0.00    0.00    0.00    0.00    0.36     0.00    0.00    0.00    0.00
   97   20.11    2.66    0.14    1.76    2.36    0.00  183.07    1.46    1.62    4.58    0.12    0.06    0.01    0.19    0.19     0.13    0.00    0.02    0.00
   98   49.97   21.05    0.50    1.78   22.28    0.00  184.30    2.84    3.64   23.18    1.30    0.11    0.03    2.92    0.09     1.30    0.01    0.18    0.00
   99    9.01    0.32    0.45    1.81    6.41    0.00  185.25    0.84    0.90    2.88    0.00    0.01    0.03    0.73    0.23     0.04    0.00    0.01    0.00
  100    4.68    0.01    0.38    1.83    4.09    0.00  184.92    0.62    0.66    2.29    0.00    0.00    0.03    0.52    0.03     0.00    0.00    0.00    0.00
  101    0.12    0.00    0.27    1.86    0.56    0.00  182.60    1.97    2.73    2.19    0.00    0.00    0.02    0.04    0.22     0.00    0.00    0.00    0.00
  102    0.00    0.00    0.19    1.88    0.22    0.00  179.97    2.55    4.76    2.13    0.00    0.00    0.01    0.01    0.22     0.00    0.00    0.00    0.00
  103    0.00    0.00    0.14    1.89    0.10    0.00  177.83    2.18    4.81    2.09    0.00    0.00    0.01    0.01    0.53     0.00    0.00    0.00    0.00
  104    0.00    0.00    0.10    1.90    0.05    0.00  175.69    2.24    5.54    2.07    0.00    0.00    0.01    0.00    0.61     0.00    0.00    0.00    0.00
  105    0.00    0.00    0.07    1.91    0.03    0.00  174.03    1.78    5.22    2.05    0.00    0.00    0.00    0.00    0.65     0.00    0.00    0.00    0.00
  106    0.00    0.00    0.05    1.91    0.01    0.00  172.64    1.50    4.54    2.03    0.00    0.00    0.00    0.00    0.66     0.00    0.00    0.00    0.00
  107    0.32    0.00    0.04    1.91    0.01    0.00  171.36    1.71    4.87    2.02    0.00    0.00    0.00    0.00    0.64     0.00    0.00    0.00    0.00
  108    0.00    0.00    0.03    1.91    0.00    0.00  170.08    1.41    4.36    2.00    0.00    0.00    0.00    0.00    0.69     0.00    0.00    0.00    0.00
  109    0.00    0.00    0.02    1.90    0.00    0.00  169.28    0.89    3.30    1.99    0.00    0.00    0.00    0.00    0.74     0.00    0.00    0.00    0.00
  110    0.00    0.00    0.02    1.90    0.00    0.00  168.12    1.30    4.59    1.98    0.00    0.00    0.00    0.00    0.74     0.00    0.00    0.00    0.00
  111    0.00    0.00    0.01    1.89    0.00    0.00  167.60    0.59    2.15    1.97    0.00    0.00    0.00    0.00    0.74     0.00    0.00    0.00    0.00
  112    0.00    0.00    0.01    1.87    0.00    0.00  166.22    1.53    5.62    1.95    0.00    0.00    0.00    0.00    0.89     0.00    0.00    0.00    0.00
  113    0.00    0.00    0.01    1.86    0.00    0.00  164.79    1.57    5.38    1.94    0.00    0.00    0.00    0.00    1.50     0.00    0.00    0.00    0.00
  114    0.00    0.00    0.01    1.84    0.00    0.00  163.72    1.18    4.33    1.92    0.00    0.00    0.00    0.00    1.47     0.00    0.00    0.00    0.00
  115   36.10    9.16    0.21    1.83    4.69    0.00  183.56    0.86    0.91   11.15    0.39    0.15    0.01    0.23    0.53     0.38    0.00    0.05    0.00
  116    0.69    0.00    0.15    1.82    0.34    0.00  180.53    3.51    4.85    2.16    0.00    0.00    0.00    0.01    1.25     0.01    0.00    0.00    0.00
  117    0.00    0.00    0.11    1.81    0.11    0.00  178.01    2.55    4.68    1.99    0.00    0.00    0.00    0.00    1.95     0.00    0.00    0.00    0.00
  118    0.00    0.00    0.08    1.79    0.04    0.00  175.49    2.64    5.61    1.94    0.00    0.00    0.00    0.00    2.04     0.00    0.00    0.00    0.00
  119    0.00    0.00    0.06    1.78    0.02    0.00  173.36    2.25    4.90    1.90    0.00    0.00    0.00    0.00    2.41     0.00    0.00    0.00    0.00
  120    8.06    0.12    0.07    1.76    0.01    0.00  177.15    4.00    5.91    2.02    0.00    0.00    0.00    0.00    2.26     0.00    0.00    0.00    0.00
    4  130.70   33.32    3.20   55.15   41.33    0.00  177.15   51.73  118.87   93.61    1.82    0.33    0.18    4.66   22.78     1.85    0.02    0.26    0.00
  121    0.07    0.00    0.05    1.74    0.01    0.00  174.65    2.71    5.01    1.86    0.00    0.00    0.00    0.00    2.56     0.00    0.00    0.00    0.00
  122   14.87    1.27    0.14    1.72    2.91    0.00  180.35    4.43    5.66    3.19    0.05    0.00    0.00    0.16    2.55     0.05    0.00    0.01    0.00
  123    1.43    0.00    0.10    1.71    0.22    0.00  179.66    1.92    2.41    1.90    0.00    0.00    0.00    0.00    2.72     0.00    0.00    0.00    0.00
  124    0.00    0.00    0.07    1.69    0.07    0.00  176.69    3.05    5.06    1.83    0.00    0.00    0.00    0.00    1.68     0.00    0.00    0.00    0.00
  125    0.00    0.00    0.05    1.67    0.03    0.00  174.29    2.52    5.10    1.79    0.00    0.00    0.00    0.00    2.81     0.00    0.00    0.00    0.00
  126    0.00    0.00    0.04    1.65    0.01    0.00  172.00    2.41    5.10    1.76    0.00    0.00    0.00    0.00    2.29     0.00    0.00    0.00    0.00
  127    0.00    0.00    0.03    1.63    0.01    0.00  169.73    2.40    5.06    1.73    0.00    0.00    0.00    0.00    1.92     0.00    0.00    0.00    0.00
  128    0.00    0.00    0.02    1.61    0.00    0.00  167.50    2.37    5.09    1.70    0.00    0.00    0.00    0.00    1.70     0.00    0.00    0.00    0.00
  129    0.00    0.00    0.02    1.58    0.00    0.00  164.93    2.73    5.89    1.67    0.00    0.00    0.00    0.00    1.62     0.00    0.00    0.00    0.00
  130    0.00    0.00    0.01    1.56    0.00    0.00  162.38    2.71    5.94    1.64    0.00    0.00    0.00    0.00    0.33     0.00    0.00    0.00    0.00
  131    6.71    0.11    0.03    1.54    0.00    0.00  165.28    3.60    5.95    1.75    0.00    0.00    0.00    0.00    0.28     0.00    0.00    0.00    0.00
  132    0.07    0.00    0.02    1.51    0.00    0.00  162.33    3.17    6.12    1.60    0.00    0.00    0.00    0.00    0.33     0.00    0.00    0.00    0.00
  133    0.00    0.00    0.02    1.49    0.00    0.00  159.62    2.87    5.57    1.57    0.00    0.00    0.00    0.00    0.26     0.00    0.00    0.00    0.00
  134    0.00    0.00    0.01    1.46    0.00    0.00  157.58    2.14    4.03    1.54    0.00    0.00    0.00    0.00    0.16     0.00    0.00    0.00    0.00
  135    0.00    0.00    0.01    1.44    0.00    0.00  155.85    1.84    3.78    1.51    0.00    0.00    0.00    0.00    0.08     0.00    0.00    0.00    0.00
  136    0.00    0.00    0.01    1.41    0.00    0.00  153.93    2.04    4.19    1.49    0.00    0.00    0.00    0.00    0.08     0.00    0.00    0.00    0.00
  137    0.00    0.00    0.01    1.39    0.00    0.00  151.39    2.70    5.80    1.46    0.00    0.00    0.00    0.00    0.09     0.00    0.00    0.00    0.00
  138   10.98    0.41    0.04    1.36    0.00    0.00  158.70    3.02    4.41    1.88    0.02    0.02    0.00    0.00    0.11     0.02    0.00    0.00    0.00
  139    1.21    0.00    0.03    1.34    0.00    0.00  158.00    1.96    2.93    1.44    0.00    0.00    0.00    0.00    0.19     0.00    0.00    0.00    0.00
  140    0.11    0.00    0.02    1.31    0.00    0.00  156.57    1.62    2.88    1.40    0.00    0.00    0.00    0.00    0.08     0.00    0.00    0.00    0.00
  141    0.00    0.00    0.02    1.28    0.00    0.00  154.49    2.20    4.15    1.37    0.00    0.00    0.00    0.00    0.05     0.00    0.00    0.00    0.00
  142   48.13   14.31    0.30    1.27    6.95    0.00  178.55    0.63    0.65   15.78    0.53    0.07    0.01    0.26    0.07     0.48    0.00    0.06    0.00
  143    0.07    0.00    0.22    1.25    0.53    0.00  175.98    2.19    2.60    1.70    0.00    0.00    0.01    0.01    0.40     0.01    0.00    0.00    0.00
  144    0.00    0.00    0.15    1.24    0.19    0.00  172.36    3.59    5.04    1.46    0.00    0.00    0.00    0.00    0.07     0.00    0.00    0.00    0.00
  145    0.00    0.00    0.11    1.22    0.08    0.00  169.20    3.23    5.07    1.40    0.00    0.00    0.00    0.00    0.10     0.00    0.00    0.00    0.00
  146    0.55    0.00    0.08    1.20    0.03    0.00  166.81    3.01    4.46    1.35    0.00    0.00    0.00    0.00    0.11     0.00    0.00    0.00    0.00
  147    0.12    0.00    0.06    1.19    0.02    0.00  164.67    2.35    3.89    1.31    0.00    0.00    0.00    0.00    0.11     0.00    0.00    0.00    0.00
  148    0.00    0.00    0.04    1.17    0.01    0.00  161.45    3.38    6.03    1.27    0.00    0.00    0.00    0.00    0.09     0.00    0.00    0.00    0.00
  149    0.00    0.00    0.03    1.15    0.00    0.00  158.09    3.51    6.46    1.24    0.00    0.00    0.00    0.00    0.13     0.00    0.00    0.00    0.00
  150    0.00    0.00    0.02    1.13    0.00    0.00  155.07    3.17    5.86    1.22    0.00    0.00    0.00    0.00    0.13     0.00    0.00    0.00    0.00
  151    0.00    0.00    0.02    1.11    0.00    0.00  151.74    3.50    7.10    1.19    0.00    0.00    0.00    0.00    0.12     0.00    0.00    0.00    0.00
    5   84.32   16.11    1.80   44.01   11.06    0.00  151.74   82.97  147.28   63.99    0.60    0.10    0.04    0.44   23.25     0.55    0.00    0.07    0.00
  152    0.00    0.00    0.01    1.09    0.00    0.00  148.73    3.17    6.11    1.17    0.00    0.00    0.00    0.00    0.11     0.00    0.00    0.00    0.00
  153    0.00    0.00    0.01    1.07    0.00    0.00  145.60    3.29    6.00    1.15    0.00    0.00    0.00    0.00    0.11     0.00    0.00    0.00    0.00
  154    5.22    0.03    0.02    1.05    0.00    0.00  149.65    0.96    1.26    1.17    0.00    0.00    0.00    0.00    0.10     0.00    0.00    0.00    0.00
  155    0.27    0.00    0.02    1.03    0.00    0.00  147.38    2.67    4.41    1.11    0.00    0.00    0.00    0.00    0.10     0.00    0.00    0.00    0.00
  156    0.00    0.00    0.01    1.01    0.00    0.00  144.30    3.23    5.71    1.08    0.00    0.00    0.00    0.00    0.11     0.00    0.00    0.00    0.00
  157   13.58    0.46    0.06    0.98    0.00    0.00  155.27    1.72    2.01    1.57    0.01    0.02    0.00    0.00    0.15     0.01    0.00    0.00    0.00
  158   24.82    3.25    0.22    0.97    2.40    0.00  170.99    2.29    2.56    4.47    0.10    0.02    0.01    0.09    0.17     0.10    0.00    0.01    0.00
  159    1.05    0.00    0.16    0.94    0.15    0.00  168.46    3.51    4.26    1.20    0.00    0.00    0.00    0.00    0.29     0.00    0.00    0.00    0.00
  160    0.00    0.00    0.11    0.92    0.04    0.00  164.42    4.17    6.01    1.10    0.00    0.00    0.00    0.00    0.15     0.00    0.00    0.00    0.00
  161    0.00    0.00    0.08    0.90    0.01    0.00  160.85    3.71    5.45    1.05    0.00    0.00    0.00    0.00    0.23     0.00    0.00    0.00    0.00
  162    3.47    0.00    0.07    0.89    0.01    0.00  160.16    4.18    5.58    1.02    0.00    0.00    0.00    0.00    0.22     0.00    0.00    0.00    0.00
  163   11.44    0.64    0.10    0.78    0.52    0.00  165.76    4.40    5.25    1.58    0.02    0.00    0.00    0.02    0.28     0.02    0.00    0.00    0.00
  164    6.20    0.06    0.11    0.76    0.59    0.00  167.85    3.28    3.83    0.99    0.00    0.00    0.00    0.00    0.35     0.00    0.00    0.00    0.00
  165    1.72    0.00    0.08    0.74    0.05    0.00  166.20    3.39    4.07    0.88    0.00    0.00    0.00    0.00    0.28     0.00    0.00    0.00    0.00
  166    0.23    0.00    0.06    0.70    0.01    0.00  162.16    4.42    5.78    0.82    0.00    0.00    0.00    0.00    0.26     0.00    0.00    0.00    0.00
  167   15.91    1.14    0.15    0.69    2.21    0.00  169.61    4.49    4.89    2.03    0.03    0.00    0.00    0.07    0.37     0.03    0.00    0.00    0.00
  168    6.92    0.05    0.15    0.69    1.34    0.00  171.11    3.82    4.29    0.96    0.00    0.00    0.00    0.03    0.44     0.00    0.00    0.00    0.00
  169    1.77    0.00    0.11    0.68    0.15    0.00  170.82    1.92    2.09    0.85    0.00    0.00    0.00    0.00    0.38     0.00    0.00    0.00    0.00
  170    7.03    0.14    0.14    0.67    1.60    0.00  172.30    3.51    3.88    1.01    0.00    0.00    0.00    0.02    0.15     0.00    0.00    0.00    0.00
  171   24.76    4.90    0.33    0.68    8.99    0.00  179.35    2.44    2.60    5.91    0.10    0.01    0.00    0.39    0.35     0.10    0.00    0.01    0.00
  172    0.11    0.00    0.24    0.68    0.77    0.00  173.77    5.09    6.33    1.04    0.00    0.00    0.00    0.01    0.39     0.00    0.00    0.00    0.00
  173    0.00    0.00    0.17    0.68    0.24    0.00  169.29    4.41    6.16    0.91    0.00    0.00    0.00    0.00    0.50     0.00    0.00    0.00    0.00
  174    0.00    0.00    0.12    0.68    0.09    0.00  165.32    4.05    5.93    0.86    0.00    0.00    0.00    0.00    0.47     0.00    0.00    0.00    0.00
  175    0.00    0.00    0.09    0.68    0.04    0.00  161.53    3.91    5.85    0.83    0.00    0.00    0.00    0.00    0.45     0.00    0.00    0.00    0.00
  176    0.00    0.00    0.06    0.68    0.02    0.00  157.86    3.81    5.89    0.81    0.00    0.00    0.00    0.00    0.43     0.00    0.00    0.00    0.00
  177    0.00    0.00    0.05    0.68    0.01    0.00  154.07    3.95    6.26    0.79    0.00    0.00    0.00    0.00    0.44     0.00    0.00    0.00    0.00
  178    0.00    0.00    0.03    0.68    0.01    0.00  150.50    3.73    6.03    0.77    0.00    0.00    0.00    0.00    0.44     0.00    0.00    0.00    0.00
  179    0.00    0.00    0.03    0.68    0.00    0.00  148.45    2.14    3.57    0.77    0.00    0.00    0.00    0.00    0.46     0.00    0.00    0.00    0.00
  180    2.76    0.00    0.03    0.68    0.00    0.00  149.29    1.91    2.86    0.77    0.00    0.00    0.00    0.00    0.25     0.00    0.00    0.00    0.00
  181   10.00    0.17    0.06    0.68    0.00    0.00  156.06    2.79    3.81    0.96    0.00    0.00    0.00    0.00    0.23     0.00    0.00    0.00    0.00
    6  137.26   10.84    2.90   24.09   19.26    0.00  156.06  100.39  138.74   39.61    0.27    0.06    0.04    0.65    8.64     0.27    0.00    0.04    0.00
  182    3.70    0.00    0.05    0.68    0.00    0.00  158.45    1.22    1.57    0.79    0.00    0.00    0.00    0.00    0.37     0.00    0.00    0.00    0.00
  183   16.27    1.07    0.13    0.68    0.09    0.00  170.52    2.45    3.14    1.93    0.01    0.00    0.00    0.00    0.14     0.01    0.00    0.00    0.00
  184    0.20    0.00    0.09    0.67    0.01    0.00  168.13    2.71    4.46    0.83    0.00    0.00    0.00    0.00    0.33     0.00    0.00    0.00    0.00
  185    0.12    0.00    0.07    0.67    0.00    0.00  166.38    1.98    3.72    0.79    0.00    0.00    0.00    0.00    0.36     0.00    0.00    0.00    0.00
  186    5.31    0.08    0.08    0.66    0.09    0.00  167.45    3.95    5.78    0.88    0.00    0.00    0.00    0.00    0.29     0.00    0.00    0.00    0.00
  187    4.62    0.01    0.08    0.65    0.00    0.00  169.12    2.88    3.74    0.80    0.00    0.00    0.00    0.00    0.47     0.00    0.00    0.00    0.00
  188    1.10    0.00    0.06    0.64    0.00    0.00  167.51    2.78    3.79    0.75    0.00    0.00    0.00    0.00    0.30     0.00    0.00    0.00    0.00
  189    0.00    0.00    0.04    0.62    0.00    0.00  163.75    3.93    6.03    0.71    0.00    0.00    0.00    0.00    0.28     0.00    0.00    0.00    0.00
  190    0.00    0.00    0.03    0.61    0.00    0.00  160.55    3.36    5.47    0.69    0.00    0.00    0.00    0.00    0.47     0.00    0.00    0.00    0.00
  191    0.00    0.00    0.02    0.59    0.00    0.00  157.42    3.30    5.63    0.67    0.00    0.00    0.00    0.00    0.42     0.00    0.00    0.00    0.00
  192   11.41    0.40    0.06    0.57    0.00    0.00  164.36    3.76    4.81    1.08    0.01    0.00    0.00    0.00    0.43     0.01    0.00    0.00    0.00
  193    4.08    0.13    0.08    0.54    0.49    0.00  164.19    3.52    5.16    0.81    0.00    0.00    0.00    0.00    0.43     0.00    0.00    0.00    0.00
  194    0.00    0.00    0.06    0.53    0.01    0.00  162.18    2.11    3.59    0.65    0.00    0.00    0.00    0.00    0.43     0.00    0.00    0.00    0.00
  195    0.00    0.00    0.04    0.52    0.00    0.00  160.47    1.80    3.07    0.62    0.00    0.00    0.00    0.00    0.29     0.00    0.00    0.00    0.00
  196    0.94    0.00    0.03    0.51    0.00    0.00  158.23    3.30    4.94    0.59    0.00    0.00    0.00    0.00    0.25     0.00    0.00    0.00    0.00
  197    0.00    0.00    0.02    0.49    0.00    0.00  155.20    3.18    5.43    0.57    0.00    0.00    0.00    0.00    0.40     0.00    0.00    0.00    0.00
  198   17.66    2.80    0.11    0.49    0.81    0.00  166.19    2.57    3.27    3.42    0.03    0.01    0.00    0.00    0.43     0.03    0.00    0.00    0.00
  199    0.00    0.00    0.08    0.48    0.07    0.00  162.88    3.39    5.24    0.63    0.00    0.00    0.00    0.00    0.37     0.00    0.00    0.00    0.00
  200    0.12    0.00    0.05    0.46    0.02    0.00  160.81    2.29    4.09    0.57    0.00    0.00    0.00    0.00    0.42     0.00    0.00    0.00    0.00
  201    0.00    0.00    0.04    0.44    0.01    0.00  157.81    3.15    5.49    0.53    0.00    0.00    0.00    0.00    0.33     0.00    0.00    0.00    0.00
  202    0.00    0.00    0.03    0.42    0.00    0.00  155.68    2.26    4.65    0.50    0.00    0.00    0.00    0.00    0.45     0.00    0.00    0.00    0.00
  203   30.22    5.73    0.20    0.41    3.21    0.00  174.05    1.61    2.02    6.31    0.08    0.01    0.00    0.00    0.38     0.09    0.00    0.01    0.00
  204   19.41    2.47    0.35    0.42    7.57    0.00  180.71    1.59    1.98    3.34    0.00    0.01    0.00    0.01    0.35     0.03    0.00    0.00    0.00
  205    0.00    0.00    0.25    0.43    0.64    0.00  177.91    2.26    3.31    0.76    0.00    0.00    0.00    0.00    0.29     0.00    0.00    0.00    0.00
  206    0.00    0.00    0.18    0.44    0.23    0.00  175.13    2.68    4.32    0.67    0.00    0.00    0.00    0.00    0.18     0.00    0.00    0.00    0.00
  207    0.00    0.00    0.13    0.44    0.10    0.00  171.94    3.25    5.16    0.62    0.00    0.00    0.00    0.00    0.11     0.00    0.00    0.00    0.00
  208    0.49    0.00    0.09    0.45    0.04    0.00  169.60    2.92    4.85    0.59    0.00    0.00    0.00    0.00    0.13     0.00    0.00    0.00    0.00
  209    0.78    0.00    0.07    0.45    0.02    0.00  167.47    3.01    4.96    0.57    0.00    0.00    0.00    0.00    0.12     0.00    0.00    0.00    0.00
  210    0.00    0.00    0.05    0.46    0.01    0.00  165.21    2.40    5.06    0.56    0.00    0.00    0.00    0.00    0.10     0.00    0.00    0.00    0.00
  211   22.38    3.22    0.16    0.46    2.28    0.00  177.75    3.52    4.55    3.86    0.03    0.01    0.00    0.00    0.08     0.03    0.00    0.00    0.00
  212    2.22    0.00    0.13    0.47    0.69    0.00  176.33    2.97    4.58    0.69    0.00    0.00    0.00    0.00    0.23     0.00    0.00    0.00    0.00
    7  141.01   15.92    2.87   16.35   16.40    0.00  176.33   86.07  133.84   36.77    0.16    0.04    0.00    0.02    9.64     0.21    0.00    0.03    0.00
  213   19.17    2.59    0.28    0.48    7.72    0.00  182.17    2.00    2.43    3.36    0.04    0.01    0.00    0.02    0.09     0.04    0.00    0.01    0.00
  214    0.19    0.00    0.20    0.50    0.56    0.00  178.62    3.33    5.10    0.78    0.00    0.00    0.00    0.00    0.18     0.00    0.00    0.00    0.00
  215   16.61    1.97    0.30    0.52    7.68    0.00  181.05    3.69    4.86    2.81    0.03    0.00    0.00    0.02    0.07     0.03    0.00    0.00    0.00
  216   10.17    0.46    0.32    0.55    5.37    0.00  182.56    2.33    3.01    1.41    0.00    0.00    0.00    0.01    0.17     0.01    0.00    0.00    0.00
  217    1.49    0.00    0.23    0.58    0.69    0.00  181.69    1.70    2.31    0.87    0.00    0.00    0.00    0.00    0.12     0.00    0.00    0.00    0.00
  218    1.93    0.00    0.18    0.61    0.45    0.00  180.59    2.61    3.51    0.84    0.00    0.00    0.00    0.00    0.06     0.00    0.00    0.00    0.00
  219   10.27    0.57    0.23    0.64    4.94    0.00  183.74    1.07    1.34    1.49    0.01    0.00    0.00    0.01    0.07     0.01    0.00    0.00    0.00
  220    0.00    0.00    0.17    0.67    0.40    0.00  180.68    2.77    3.92    0.89    0.00    0.00    0.00    0.00    0.11     0.00    0.00    0.00    0.00
  221    0.00    0.00    0.12    0.69    0.13    0.00  177.66    3.03    4.93    0.86    0.00    0.00    0.00    0.00    0.05     0.00    0.00    0.00    0.00
  222    0.00    0.00    0.09    0.71    0.06    0.00  175.52    2.21    4.05    0.85    0.00    0.00    0.00    0.00    0.06     0.00    0.00    0.00    0.00
  223    0.50    0.00    0.06    0.73    0.03    0.00  173.68    2.42    4.08    0.84    0.00    0.00    0.00    0.00    0.06     0.00    0.00    0.00    0.00
  224   11.83    0.96    0.12    0.75    2.26    0.00  180.24    1.53    1.97    1.86    0.01    0.00    0.00    0.02    0.06     0.02    0.00    0.00    0.00
  225    0.00    0.00    0.09    0.76    0.09    0.00  177.29    2.99    4.82    0.92    0.00    0.00    0.00    0.00    0.11     0.00    0.00    0.00    0.00
  226    0.79    0.00    0.06    0.78    0.02    0.00  175.44    2.72    4.40    0.89    0.00    0.00    0.00    0.00    0.06     0.00    0.00    0.00    0.00
  227    0.00    0.00    0.05    0.79    0.01    0.00  173.02    2.55    4.85    0.89    0.00    0.00    0.00    0.00    0.06     0.00    0.00    0.00    0.00
  228    3.80    0.03    0.05    0.80    0.27    0.00  173.33    3.15    4.64    0.93    0.00    0.00    0.00    0.00    0.05     0.00    0.00    0.00    0.00
  229    0.27    0.00    0.04    0.81    0.01    0.00  171.76    1.94    3.46    0.90    0.00    0.00    0.00    0.00    0.05     0.00    0.00    0.00    0.00
  230    1.19    0.00    0.03    0.81    0.00    0.00  170.24    2.80    4.74    0.90    0.00    0.00    0.00    0.00    0.03     0.00    0.00    0.00    0.00
  231   19.44    4.42    0.13    0.82    2.59    0.00  179.65    2.41    2.84    5.39    0.05    0.01    0.00    0.01    0.03     0.06    0.00    0.01    0.00
  232    0.00    0.00    0.09    0.83    0.29    0.00  176.63    2.86    4.54    1.01    0.00    0.00    0.00    0.00    0.18     0.00    0.00    0.00    0.00
  233    0.24    0.00    0.07    0.83    0.11    0.00  174.61    2.26    4.09    0.95    0.00    0.00    0.00    0.00    0.03     0.00    0.00    0.00    0.00
  234    0.47    0.00    0.05    0.84    0.05    0.00  173.32    1.79    2.95    0.94    0.00    0.00    0.00    0.00    0.03     0.00    0.00    0.00    0.00
  235    0.00    0.00    0.04    0.84    0.02    0.00  171.14    2.27    3.98    0.93    0.00    0.00    0.00    0.00    0.03     0.00    0.00    0.00    0.00
  236    0.00    0.00    0.03    0.84    0.01    0.00  168.52    2.75    4.85    0.92    0.00    0.00    0.00    0.00    0.03     0.00    0.00    0.00    0.00
  237    1.72    0.00    0.03    0.84    0.01    0.00  168.06    2.21    3.95    0.92    0.00    0.00    0.00    0.00    0.03     0.00    0.00    0.00    0.00
  238    0.12    0.00    0.02    0.84    0.00    0.00  165.84    2.47    4.46    0.91    0.00    0.00    0.00    0.00    0.04     0.00    0.00    0.00    0.00
  239   23.39    3.83    0.15    0.84    3.10    0.00  178.36    3.06    3.92    4.83    0.06    0.01    0.00    0.02    0.02     0.06    0.00    0.01    0.00
  240    1.25    0.00    0.11    0.83    0.21    0.00  176.23    3.27    4.51    1.04    0.00    0.00    0.00    0.00    0.16     0.00    0.00    0.00    0.00
  241    2.21    0.00    0.09    0.83    0.13    0.00  175.75    2.58    3.72    0.97    0.00    0.00    0.00    0.00    0.03     0.00    0.00    0.00    0.00
  242    0.12    0.00    0.06    0.83    0.03    0.00  173.66    2.30    4.35    0.94    0.00    0.00    0.00    0.00    0.04     0.00    0.00    0.00    0.00
  243    0.00    0.00    0.04    0.83    0.02    0.00  171.55    2.24    4.85    0.92    0.00    0.00    0.00    0.00    0.02     0.00    0.00    0.00    0.00
    8  127.18   14.84    3.50   23.04   37.25    0.00  171.55   77.29  121.41   42.93    0.19    0.04    0.01    0.12    2.14     0.22    0.00    0.03    0.00
  244   13.61    1.12    0.12    0.82    2.01    0.00  178.71    2.78    4.02    2.09    0.02    0.01    0.00    0.03    0.02     0.03    0.00    0.01    0.00
  245    0.12    0.00    0.09    0.82    0.05    0.00  176.68    2.20    3.56    0.97    0.00    0.00    0.00    0.00    0.10     0.00    0.00    0.00    0.00
  246    2.25    0.00    0.07    0.81    0.22    0.00  175.73    3.02    4.25    0.94    0.00    0.00    0.00    0.00    0.02     0.00    0.00    0.00    0.00
  247    0.50    0.00    0.05    0.81    0.01    0.00  174.06    2.25    3.68    0.91    0.00    0.00    0.00    0.00    0.03     0.00    0.00    0.00    0.00
  248   10.75    0.46    0.11    0.81    1.78    0.00  180.10    2.04    2.49    1.41    0.00    0.01    0.00    0.02    0.02     0.01    0.00    0.00    0.00
  249    0.70    0.00    0.08    0.80    0.06    0.00  180.13    0.61    0.84    0.94    0.00    0.00    0.00    0.00    0.07     0.00    0.00    0.00    0.00
  250    0.00    0.00    0.06    0.79    0.01    0.00  179.40    0.76    1.28    0.90    0.00    0.00    0.00    0.00    0.02     0.00    0.00    0.00    0.00
  251    0.00    0.00    0.04    0.78    0.01    0.00  177.46    2.03    3.40    0.87    0.00    0.00    0.00    0.00    0.02     0.00    0.00    0.00    0.00
  252    0.00    0.00    0.03    0.77    0.00    0.00  175.43    2.15    4.04    0.85    0.00    0.00    0.00    0.00    0.02     0.00    0.00    0.00    0.00
  253    0.00    0.00    0.02    0.76    0.00    0.00  173.57    1.98    4.17    0.83    0.00    0.00    0.00    0.00    0.02     0.00    0.00    0.00    0.00
  254    0.00    0.00    0.02    0.75    0.00    0.00  171.63    2.08    4.66    0.81    0.00    0.00    0.00    0.00    0.02     0.00    0.00    0.00    0.00
  255    0.00    0.00    0.01    0.74    0.00    0.00  169.83    1.92    4.12    0.80    0.00    0.00    0.00    0.00    0.02     0.00    0.00    0.00    0.00
  256    0.00    0.00    0.01    0.73    0.00    0.00  168.14    1.81    4.02    0.79    0.00    0.00    0.00    0.00    0.02     0.00    0.00    0.00    0.00
  257    0.00    0.00    0.01    0.73    0.00    0.00  167.20    1.01    2.56    0.78    0.00    0.00    0.00    0.00    0.02     0.00    0.00    0.00    0.00
  258    0.00    0.00    0.01    0.72    0.00    0.00  165.61    1.70    3.79    0.77    0.00    0.00    0.00    0.00    0.02     0.00    0.00    0.00    0.00
  259    0.00    0.00    0.00    0.70    0.00    0.00  163.86    1.88    4.75    0.75    0.00    0.00    0.00    0.00    0.02     0.00    0.00    0.00    0.00
  260    0.00    0.00    0.00    0.68    0.00    0.00  162.01    1.98    5.21    0.73    0.00    0.00    0.00    0.00    0.02     0.00    0.00    0.00    0.00
  261    0.00    0.00    0.00    0.63    0.00    0.00  160.23    1.92    4.95    0.68    0.00    0.00    0.00    0.00    0.02     0.00    0.00    0.00    0.00
  262    0.00    0.00    0.00    0.62    0.00    0.00  158.60    1.75    4.13    0.67    0.00    0.00    0.00    0.00    0.02     0.00    0.00    0.00    0.00
  263    0.00    0.00    0.00    0.60    0.00    0.00  157.04    1.67    4.13    0.65    0.00    0.00    0.00    0.00    0.01     0.00    0.00    0.00    0.00
  264    0.57    0.00    0.00    0.60    0.00    0.00  156.30    1.39    3.26    0.64    0.00    0.00    0.00    0.00    0.01     0.00    0.00    0.00    0.00
  265   15.02    1.02    0.06    0.59    0.22    0.00  168.07    1.48    2.00    1.70    0.02    0.03    0.00    0.00    0.01     0.03    0.00    0.00    0.00
  266    2.97    0.00    0.06    0.57    0.34    0.00  167.76    2.92    4.19    0.70    0.00    0.00    0.00    0.01    0.08     0.00    0.00    0.00    0.00
  267    0.00    0.00    0.04    0.56    0.01    0.00  165.95    1.91    3.67    0.65    0.00    0.00    0.00    0.00    0.03     0.00    0.00    0.00    0.00
  268    0.00    0.00    0.03    0.54    0.00    0.00  164.70    1.33    2.70    0.61    0.00    0.00    0.00    0.00    0.01     0.00    0.00    0.00    0.00
  269    0.29    0.00    0.02    0.51    0.00    0.00  163.02    2.07    4.25    0.57    0.00    0.00    0.00    0.00    0.01     0.00    0.00    0.00    0.00
  270    0.00    0.00    0.02    0.49    0.00    0.00  161.34    1.80    3.92    0.56    0.00    0.00    0.00    0.00    0.01     0.00    0.00    0.00    0.00
  271    0.00    0.00    0.01    0.47    0.00    0.00  159.37    2.08    4.82    0.53    0.00    0.00    0.00    0.00    0.01     0.00    0.00    0.00    0.00
  272    0.00    0.00    0.01    0.45    0.00    0.00  157.35    2.14    5.12    0.50    0.00    0.00    0.00    0.00    0.01     0.00    0.00    0.00    0.00
  273    0.00    0.00    0.01    0.44    0.00    0.00  155.67    1.78    4.68    0.49    0.00    0.00    0.00    0.00    0.01     0.00    0.00    0.00    0.00
    9   46.78    2.60    1.00   20.08    4.72    0.00  155.67   56.44  112.66   25.11    0.04    0.04    0.01    0.06    0.71     0.06    0.00    0.01    0.00
  274    0.00    0.00    0.00    0.42    0.00    0.00  154.24    1.55    3.91    0.47    0.00    0.00    0.00    0.00    0.01     0.00    0.00    0.00    0.00
  275    0.00    0.00    0.00    0.41    0.00    0.00  152.86    1.50    4.03    0.46    0.00    0.00    0.00    0.00    0.01     0.00    0.00    0.00    0.00
  276    0.00    0.00    0.00    0.40    0.00    0.00  151.60    1.37    3.85    0.44    0.00    0.00    0.00    0.00    0.01     0.00    0.00    0.00    0.00
  277    0.00    0.00    0.00    0.38    0.00    0.00  150.34    1.37    3.39    0.42    0.00    0.00    0.00    0.00    0.01     0.00    0.00    0.00    0.00
  278    0.00    0.00    0.00    0.34    0.00    0.00  148.94    1.51    3.46    0.39    0.00    0.00    0.00    0.00    0.01     0.00    0.00    0.00    0.00
  279    0.00    0.00    0.00    0.34    0.00    0.00  147.84    1.18    2.90    0.38    0.00    0.00    0.00    0.00    0.01     0.00    0.00    0.00    0.00
  280   42.59   10.87    0.22    0.33    2.45    0.00  174.12    1.25    1.57   11.31    0.16    0.11    0.00    0.06    0.01     0.22    0.01    0.04    0.00
  281    0.07    0.00    0.16    0.33    0.08    0.00  172.94    1.23    1.91    0.69    0.00    0.00    0.00    0.00    0.19     0.00    0.00    0.00    0.00
  282    0.00    0.00    0.11    0.33    0.02    0.00  171.85    1.14    2.19    0.49    0.00    0.00    0.00    0.00    0.02     0.00    0.00    0.00    0.00
  283    0.12    0.00    0.08    0.32    0.01    0.00  170.66    1.36    2.28    0.44    0.00    0.00    0.00    0.00    0.01     0.00    0.00    0.00    0.00
  284    0.94    0.00    0.06    0.32    0.01    0.00  171.18    0.42    0.67    0.42    0.00    0.00    0.00    0.00    0.01     0.00    0.00    0.00    0.00
  285    0.75    0.00    0.04    0.30    0.00    0.00  168.69    3.23    4.30    0.39    0.00    0.00    0.00    0.00    0.01     0.00    0.00    0.00    0.00
  286    0.00    0.00    0.03    0.30    0.00    0.00  167.93    0.82    1.99    0.37    0.00    0.00    0.00    0.00    0.01     0.00    0.00    0.00    0.00
  287    0.37    0.00    0.02    0.30    0.00    0.00  167.13    1.22    2.11    0.36    0.00    0.00    0.00    0.00    0.01     0.00    0.00    0.00    0.00
  288    0.00    0.00    0.02    0.27    0.00    0.00  165.22    2.02    4.22    0.33    0.00    0.00    0.00    0.00    0.01     0.00    0.00    0.00    0.00
  289    0.00    0.00    0.01    0.26    0.00    0.00  163.60    1.72    3.52    0.32    0.00    0.00    0.00    0.00    0.01     0.00    0.00    0.00    0.00
  290    0.00    0.00    0.01    0.26    0.00    0.00  162.30    1.39    3.18    0.31    0.00    0.00    0.00    0.00    0.01     0.00    0.00    0.00    0.00
  291    0.00    0.00    0.01    0.25    0.00    0.00  161.16    1.24    3.19    0.30    0.00    0.00    0.00    0.00    0.01     0.00    0.00    0.00    0.00
  292    0.00    0.00    0.01    0.25    0.00    0.00  160.11    1.15    2.82    0.30    0.00    0.00    0.00    0.00    0.01     0.00    0.00    0.00    0.00
  293    0.00    0.00    0.00    0.25    0.00    0.00  158.98    1.23    2.93    0.29    0.00    0.00    0.00    0.00    0.01     0.00    0.00    0.00    0.00
  294    0.00    0.00    0.00    0.23    0.00    0.00  157.67    1.41    3.83    0.27    0.00    0.00    0.00    0.00    0.01     0.00    0.00    0.00    0.00
  295    0.00    0.00    0.00    0.22    0.00    0.00  156.17    1.60    4.00    0.26    0.00    0.00    0.00    0.00    0.01     0.00    0.00    0.00    0.00
  296    0.00    0.00    0.00    0.22    0.00    0.00  154.71    1.56    3.87    0.26    0.00    0.00    0.00    0.00    0.01     0.00    0.00    0.00    0.00
  297    0.00    0.00    0.00    0.22    0.00    0.00  153.37    1.43    3.52    0.26    0.00    0.00    0.00    0.00    0.01     0.00    0.00    0.00    0.00
  298    0.00    0.00    0.00    0.21    0.00    0.00  152.55    0.90    2.77    0.25    0.00    0.00    0.00    0.00    0.01     0.00    0.00    0.00    0.00
  299   11.12    0.46    0.04    0.21    0.03    0.00  161.60    1.19    1.72    0.75    0.01    0.02    0.00    0.00    0.01     0.01    0.00    0.00    0.00
  300    1.97    0.00    0.04    0.21    0.17    0.00  161.65    1.68    2.13    0.30    0.00    0.00    0.00    0.00    0.03     0.00    0.00    0.00    0.00
  301   25.04    4.59    0.21    0.21    5.13    0.00  173.10    2.61    3.27    4.97    0.07    0.02    0.00    0.16    0.02     0.10    0.00    0.02    0.00
  302    0.11    0.00    0.15    0.22    0.22    0.00  171.65    1.41    2.46    0.48    0.00    0.00    0.00    0.00    0.12     0.00    0.00    0.00    0.00
  303    0.00    0.00    0.11    0.22    0.07    0.00  170.40    1.27    2.55    0.37    0.00    0.00    0.00    0.00    0.01     0.00    0.00    0.00    0.00
  304    0.00    0.00    0.08    0.23    0.03    0.00  169.51    0.93    2.07    0.34    0.00    0.00    0.00    0.00    0.01     0.00    0.00    0.00    0.00
   10   83.08   15.92    1.45    8.78    8.22    0.00  169.51   43.88   90.62   27.40    0.24    0.15    0.02    0.23    0.57     0.34    0.01    0.06    0.00
  305    0.00    0.00    0.06    0.22    0.01    0.00  168.31    1.28    2.92    0.32    0.00    0.00    0.00    0.00    0.01     0.00    0.00    0.00    0.00
  306    0.00    0.00    0.04    0.22    0.01    0.00  166.84    1.56    3.48    0.30    0.00    0.00    0.00    0.00    0.01     0.00    0.00    0.00    0.00
  307    0.00    0.00    0.03    0.22    0.00    0.00  166.10    0.80    2.20    0.29    0.00    0.00    0.00    0.00    0.01     0.00    0.00    0.00    0.00
  308    8.76    0.41    0.07    0.23    1.13    0.00  171.87    1.07    1.45    0.74    0.01    0.01    0.00    0.04    0.01     0.01    0.00    0.00    0.00
  309    0.19    0.00    0.05    0.23    0.05    0.00  170.92    1.16    2.00    0.32    0.00    0.00    0.00    0.00    0.04     0.00    0.00    0.00    0.00
  310    0.00    0.00    0.04    0.23    0.02    0.00  169.75    1.23    2.52    0.31    0.00    0.00    0.00    0.00    0.01     0.00    0.00    0.00    0.00
  311    0.00    0.00    0.03    0.24    0.01    0.00  168.72    1.10    2.42    0.30    0.00    0.00    0.00    0.00    0.01     0.00    0.00    0.00    0.00
  312    0.00    0.00    0.02    0.24    0.00    0.00  168.31    0.47    1.34    0.29    0.00    0.00    0.00    0.00    0.01     0.00    0.00    0.00    0.00
  313    0.00    0.00    0.01    0.24    0.00    0.00  167.80    0.54    1.46    0.29    0.00    0.00    0.00    0.00    0.01     0.00    0.00    0.00    0.00
  314    0.00    0.00    0.01    0.23    0.00    0.00  166.88    0.99    2.65    0.28    0.00    0.00    0.00    0.00    0.01     0.00    0.00    0.00    0.00
  315    0.00    0.00    0.01    0.23    0.00    0.00  166.15    0.81    2.11    0.28    0.00    0.00    0.00    0.00    0.00     0.00    0.00    0.00    0.00
  316    0.00    0.00    0.01    0.23    0.00    0.00  165.47    0.75    2.43    0.27    0.00    0.00    0.00    0.00    0.00     0.00    0.00    0.00    0.00
  317    0.00    0.00    0.00    0.22    0.00    0.00  164.61    0.93    3.86    0.26    0.00    0.00    0.00    0.00    0.00     0.00    0.00    0.00    0.00
  318    0.00    0.00    0.00    0.22    0.00    0.00  164.16    0.52    2.14    0.26    0.00    0.00    0.00    0.00    0.00     0.00    0.00    0.00    0.00
  319    0.00    0.00    0.00    0.22    0.00    0.00  163.77    0.46    2.05    0.26    0.00    0.00    0.00    0.00    0.00     0.00    0.00    0.00    0.00
  320    0.00    0.00    0.00    0.22    0.00    0.00  163.37    0.47    2.18    0.26    0.00    0.00    0.00    0.00    0.00     0.00    0.00    0.00    0.00
  321    0.00    0.00    0.00    0.22    0.00    0.00  162.99    0.45    2.11    0.25    0.00    0.00    0.00    0.00    0.00     0.00    0.00    0.00    0.00
  322    0.77    0.00    0.00    0.22    0.00    0.00  162.79    1.02    2.96    0.25    0.00    0.00    0.00    0.00    0.00     0.00    0.00    0.00    0.00
  323   15.39    1.22    0.09    0.22    1.25    0.00  173.97    1.11    1.67    1.54    0.02    0.05    0.00    0.04    0.00     0.03    0.00    0.01    0.00
  324    0.00    0.00    0.06    0.22    0.06    0.00  172.70    1.29    2.87    0.33    0.00    0.00    0.00    0.00    0.00     0.00    0.00    0.00    0.00
  325    0.00    0.00    0.04    0.22    0.02    0.00  171.98    0.77    1.90    0.29    0.00    0.00    0.00    0.00    0.00     0.00    0.00    0.00    0.00
  326    0.00    0.00    0.03    0.21    0.01    0.00  171.32    0.73    1.99    0.27    0.00    0.00    0.00    0.00    0.00     0.00    0.00    0.00    0.00
  327    0.00    0.00    0.02    0.20    0.00    0.00  170.75    0.63    1.92    0.26    0.00    0.00    0.00    0.00    0.00     0.00    0.00    0.00    0.00
  328    6.59    0.04    0.06    0.20    0.60    0.00  176.04    0.39    0.55    0.33    0.00    0.00    0.00    0.01    0.00     0.00    0.00    0.00    0.00
  329    0.00    0.00    0.04    0.20    0.04    0.00  174.96    1.09    1.89    0.27    0.00    0.00    0.00    0.00    0.00     0.00    0.00    0.00    0.00
  330    0.00    0.00    0.03    0.20    0.02    0.00  174.37    0.63    1.40    0.26    0.00    0.00    0.00    0.00    0.00     0.00    0.00    0.00    0.00
  331    0.00    0.00    0.02    0.20    0.01    0.00  173.68    0.75    1.89    0.25    0.00    0.00    0.00    0.00    0.00     0.00    0.00    0.00    0.00
  332    7.97    0.28    0.09    0.20    2.68    0.00  177.28    0.97    1.37    0.59    0.00    0.00    0.00    0.09    0.00     0.01    0.00    0.00    0.00
  333    0.00    0.00    0.06    0.20    0.15    0.00  176.06    1.12    2.42    0.30    0.00    0.00    0.00    0.00    0.00     0.00    0.00    0.00    0.00
  334    0.00    0.00    0.04    0.20    0.05    0.00  175.50    0.56    1.31    0.28    0.00    0.00    0.00    0.00    0.00     0.00    0.00    0.00    0.00
   11   39.67    1.95    0.97    6.54    6.11    0.00  175.50   25.63   63.47   10.47    0.03    0.06    0.02    0.18    0.12     0.05    0.00    0.01    0.00
  335    0.00    0.00    0.03    0.20    0.02    0.00  174.61    0.93    2.42    0.26    0.00    0.00    0.00    0.00    0.00     0.00    0.00    0.00    0.00
  336    0.00    0.00    0.02    0.20    0.01    0.00  173.47    1.20    3.42    0.25    0.00    0.00    0.00    0.00    0.00     0.00    0.00    0.00    0.00
  337    0.00    0.00    0.02    0.20    0.00    0.00  172.70    0.82    2.65    0.25    0.00    0.00    0.00    0.00    0.00     0.00    0.00    0.00    0.00
  338    3.14    0.00    0.02    0.20    0.00    0.00  175.58    0.17    0.24    0.25    0.00    0.00    0.00    0.00    0.00     0.00    0.00    0.00    0.00
  339    0.12    0.00    0.02    0.20    0.00    0.00  175.32    0.39    0.61    0.25    0.00    0.00    0.00    0.00    0.00     0.00    0.00    0.00    0.00
  340    0.00    0.00    0.01    0.20    0.00    0.00  174.86    0.50    1.00    0.24    0.00    0.00    0.00    0.00    0.00     0.00    0.00    0.00    0.00
  341    0.00    0.00    0.01    0.20    0.00    0.00  174.37    0.54    1.22    0.24    0.00    0.00    0.00    0.00    0.00     0.00    0.00    0.00    0.00
  342    0.00    0.00    0.01    0.20    0.00    0.00  173.92    0.50    1.24    0.24    0.00    0.00    0.00    0.00    0.00     0.00    0.00    0.00    0.00
  343    0.00    0.00    0.00    0.20    0.00    0.00  173.42    0.55    1.49    0.24    0.00    0.00    0.00    0.00    0.00     0.00    0.00    0.00    0.00
  344   14.76    1.40    0.14    0.21    5.02    0.00  179.85    1.09    1.54    1.75    0.02    0.02    0.00    0.13    0.00     0.02    0.00    0.00    0.00
  345    0.00    0.00    0.10    0.21    0.30    0.00  178.69    0.91    1.91    0.36    0.00    0.00    0.00    0.00    0.00     0.00    0.00    0.00    0.00
  346    0.00    0.00    0.07    0.22    0.09    0.00  177.96    0.70    1.59    0.32    0.00    0.00    0.00    0.00    0.00     0.00    0.00    0.00    0.00
  347    3.21    0.00    0.07    0.22    0.48    0.00  179.88    0.69    0.95    0.32    0.00    0.00    0.00    0.01    0.00     0.00    0.00    0.00    0.00
  348   14.18    1.37    0.22    0.24    8.36    0.00  183.05    0.36    0.49    1.84    0.02    0.01    0.00    0.26    0.00     0.03    0.00    0.00    0.00
  349    0.00    0.00    0.16    0.26    0.59    0.00  181.75    0.76    1.21    0.46    0.00    0.00    0.00    0.01    0.00     0.00    0.00    0.00    0.00
  350    0.00    0.00    0.11    0.27    0.20    0.00  181.00    0.59    1.14    0.41    0.00    0.00    0.00    0.00    0.00     0.00    0.00    0.00    0.00
  351    8.66    0.30    0.18    0.29    5.15    0.00  182.11    1.58    2.41    0.80    0.00    0.00    0.00    0.17    0.00     0.01    0.00    0.00    0.00
  352    0.00    0.00    0.13    0.31    0.40    0.00  180.43    1.34    2.98    0.47    0.00    0.00    0.00    0.01    0.00     0.00    0.00    0.00    0.00
  353    0.00    0.00    0.09    0.32    0.13    0.00  179.08    1.27    3.37    0.44    0.00    0.00    0.00    0.00    0.00     0.00    0.00    0.00    0.00
  354    0.00    0.00    0.07    0.34    0.06    0.00  178.32    0.75    2.20    0.43    0.00    0.00    0.00    0.00    0.00     0.00    0.00    0.00    0.00
  355    0.00    0.00    0.05    0.35    0.03    0.00  177.74    0.61    1.80    0.43    0.00    0.00    0.00    0.00    0.00     0.00    0.00    0.00    0.00
  356    0.00    0.00    0.04    0.36    0.01    0.00  177.29    0.49    1.47    0.43    0.00    0.00    0.00    0.00    0.00     0.00    0.00    0.00    0.00
  357    4.00    0.00    0.04    0.37    0.01    0.00  179.92    1.27    2.01    0.45    0.00    0.00    0.00    0.00    0.00     0.00    0.00    0.00    0.00
  358    0.99    0.00    0.03    0.38    0.01    0.00  180.58    0.30    0.43    0.44    0.00    0.00    0.00    0.00    0.00     0.00    0.00    0.00    0.00
  359    0.00    0.00    0.02    0.39    0.00    0.00  180.19    0.41    0.70    0.44    0.00    0.00    0.00    0.00    0.00     0.00    0.00    0.00    0.00
  360    0.00    0.00    0.02    0.40    0.00    0.00  179.37    0.86    1.69    0.44    0.00    0.00    0.00    0.00    0.00     0.00    0.00    0.00    0.00
  361    0.00    0.00    0.01    0.40    0.00    0.00  178.60    0.83    1.92    0.45    0.00    0.00    0.00    0.00    0.00     0.00    0.00    0.00    0.00
  362    0.00    0.00    0.01    0.41    0.00    0.00  177.84    0.81    2.16    0.45    0.00    0.00    0.00    0.00    0.00     0.00    0.00    0.00    0.00
  363    0.00    0.00    0.01    0.41    0.00    0.00  177.31    0.56    1.61    0.45    0.00    0.00    0.00    0.00    0.04     0.00    0.00    0.00    0.00
  364    1.94    0.00    0.01    0.42    0.00    0.00  177.88    1.36    2.41    0.46    0.00    0.00    0.00    0.00    0.06     0.00    0.00    0.00    0.00
  365    0.00    0.00    0.01    0.42    0.00    0.00  177.10    0.84    2.10    0.45    0.00    0.00    0.00    0.00    0.00     0.00    0.00    0.00    0.00
   12   50.99    3.08    1.71    9.03   20.88    0.00  177.10   23.96   52.42   14.71    0.04    0.03    0.03    0.59    0.10     0.06    0.00    0.01    0.00

 2003 1100.66  151.01   28.52  311.94  296.48    0.00  177.10  640.18 1179.08  509.12    4.78    1.10    0.56   21.92   67.95     5.29    0.07    0.77    0.00
1
    SWAT May 6 2015    VER 2015/Rev 637                                             

    General Input/Output section (file.cio):                                        
    11/27/2018 12:00:00 AM ARCGIS-SWAT interface AV                                 
                                                                                    
Annual Summary for Watershed in year    5 of simulation

UNIT                                    PERCO    TILE                           WATER     SED     NO3     NO3     NO3     NO3        N       P       P
TIME     PREC    SURQ    LATQ     GWQ    LATE       Q     SW       ET     PET   YIELD   YIELD    SURQ    LATQ    PERC    CROP  ORGANIC SOLUBLE ORGANIC TILENO3
         (mm)    (mm)    (mm)    (mm)    (mm)    (mm)    (mm)    (mm)    (mm)    (mm)    (mm)   ------------------(kg nutrient/ha)-------------------- (kg/ha)
    1    0.00    0.00    0.01    0.42    0.00    0.00  176.62    0.55    1.81    0.45    0.00    0.00    0.00    0.00    0.00     0.00    0.00    0.00    0.00
    2    0.00    0.00    0.00    0.42    0.00    0.00  176.17    0.49    1.45    0.45    0.00    0.00    0.00    0.00    0.00     0.00    0.00    0.00    0.00
    3    0.00    0.00    0.00    0.42    0.00    0.00  175.68    0.56    1.71    0.45    0.00    0.00    0.00    0.00    0.00     0.00    0.00    0.00    0.00
    4    0.00    0.00    0.00    0.42    0.00    0.00  175.19    0.54    1.77    0.45    0.00    0.00    0.00    0.00    0.00     0.00    0.00    0.00    0.00
    5    5.88    0.03    0.03    0.42    0.16    0.00  179.56    1.12    1.44    0.50    0.00    0.00    0.00    0.00    0.00     0.00    0.00    0.00    0.00
    6    0.00    0.00    0.02    0.42    0.02    0.00  178.57    0.99    2.07    0.46    0.00    0.00    0.00    0.00    0.00     0.00    0.00    0.00    0.00
    7    0.00    0.00    0.01    0.41    0.00    0.00  177.72    0.90    2.17    0.46    0.00    0.00    0.00    0.00    0.00     0.00    0.00    0.00    0.00
    8    0.30    0.00    0.01    0.41    0.00    0.00  177.56    0.48    1.00    0.45    0.00    0.00    0.00    0.00    0.00     0.00    0.00    0.00    0.00
    9    3.36    0.00    0.02    0.41    0.19    0.00  180.33    0.26    0.33    0.46    0.00    0.00    0.00    0.00    0.00     0.00    0.00    0.00    0.00
   10    0.00    0.00    0.02    0.41    0.02    0.00  179.56    0.77    1.11    0.45    0.00    0.00    0.00    0.00    0.00     0.00    0.00    0.00    0.00
   11    0.00    0.00    0.01    0.40    0.01    0.00  178.95    0.66    1.26    0.44    0.00    0.00    0.00    0.00    0.00     0.00    0.00    0.00    0.00
   12    0.00    0.00    0.01    0.40    0.00    0.00  178.16    0.84    1.81    0.43    0.00    0.00    0.00    0.00    0.00     0.00    0.00    0.00    0.00
   13    0.00    0.00    0.01    0.39    0.00    0.00  177.51    0.68    1.68    0.43    0.00    0.00    0.00    0.00    0.00     0.00    0.00    0.00    0.00
   14    0.00    0.00    0.00    0.39    0.00    0.00  176.89    0.67    1.77    0.42    0.00    0.00    0.00    0.00    0.00     0.00    0.00    0.00    0.00
   15    0.00    0.00    0.00    0.39    0.00    0.00  176.23    0.70    2.02    0.42    0.00    0.00    0.00    0.00    0.00     0.00    0.00    0.00    0.00
   16    0.00    0.00    0.00    0.38    0.00    0.00  175.54    0.75    2.27    0.41    0.00    0.00    0.00    0.00    0.00     0.00    0.00    0.00    0.00
   17    0.00    0.00    0.00    0.38    0.00    0.00  175.13    0.44    1.44    0.40    0.00    0.00    0.00    0.00    0.00     0.00    0.00    0.00    0.00
   18    2.98    0.00    0.01    0.37    0.00    0.00  176.83    1.22    1.81    0.41    0.00    0.00    0.00    0.00    0.00     0.00    0.00    0.00    0.00
   19    0.12    0.00    0.01    0.36    0.00    0.00  176.55    0.41    0.89    0.39    0.00    0.00    0.00    0.00    0.00     0.00    0.00    0.00    0.00
   20    0.00    0.00    0.01    0.35    0.00    0.00  175.95    0.65    1.57    0.38    0.00    0.00    0.00    0.00    0.00     0.00    0.00    0.00    0.00
   21    0.00    0.00    0.00    0.35    0.00    0.00  175.48    0.52    1.41    0.38    0.00    0.00    0.00    0.00    0.00     0.00    0.00    0.00    0.00
   22    0.00    0.00    0.00    0.34    0.00    0.00  174.73    0.81    2.43    0.37    0.00    0.00    0.00    0.00    0.00     0.00    0.00    0.00    0.00
   23    0.00    0.00    0.00    0.33    0.00    0.00  173.87    0.92    3.02    0.36    0.00    0.00    0.00    0.00    0.00     0.00    0.00    0.00    0.00
   24    0.07    0.00    0.00    0.33    0.00    0.00  173.30    0.70    2.26    0.35    0.00    0.00    0.00    0.00    0.00     0.00    0.00    0.00    0.00
   25    1.69    0.00    0.01    0.32    0.00    0.00  173.56    1.42    2.93    0.35    0.00    0.00    0.00    0.00    0.00     0.00    0.00    0.00    0.00
   26   52.29   21.14    0.37    0.34   16.15    0.00  185.86    0.19    0.22   21.61    0.79    0.10    0.01    0.64    0.00     0.85    0.01    0.15    0.00
   27    0.00    0.00    0.26    0.35    1.18    0.00  183.46    1.26    1.62    0.90    0.00    0.00    0.01    0.02    0.00     0.01    0.00    0.00    0.00
   28    0.00    0.00    0.19    0.37    0.40    0.00  181.92    1.20    2.30    0.59    0.00    0.00    0.00    0.01    0.00     0.00    0.00    0.00    0.00
   29    0.00    0.00    0.13    0.38    0.18    0.00  181.02    0.77    1.71    0.54    0.00    0.00    0.00    0.00    0.00     0.00    0.00    0.00    0.00
   30    0.00    0.00    0.10    0.40    0.09    0.00  180.36    0.60    1.46    0.52    0.00    0.00    0.00    0.00    0.00     0.00    0.00    0.00    0.00
   31    0.00    0.00    0.07    0.41    0.04    0.00  179.55    0.82    2.11    0.50    0.00    0.00    0.00    0.00    0.00     0.00    0.00    0.00    0.00
    1   66.69   21.18    1.34   11.86   18.45    0.00  179.55   22.86   52.85   35.22    0.79    0.10    0.03    0.68    0.00     0.86    0.01    0.15    0.00
   32    3.07    0.00    0.06    0.42    0.03    0.00  181.33    1.16    1.46    0.51    0.00    0.00    0.00    0.00    0.00     0.00    0.00    0.00    0.00
   33    3.41    0.00    0.07    0.43    0.79    0.00  182.90    0.91    1.05    0.52    0.00    0.00    0.00    0.02    0.00     0.00    0.00    0.00    0.00
   34    0.11    0.00    0.05    0.44    0.08    0.00  182.14    0.84    1.35    0.51    0.00    0.00    0.00    0.00    0.00     0.00    0.00    0.00    0.00
   35    0.00    0.00    0.04    0.44    0.02    0.00  181.24    0.93    1.83    0.50    0.00    0.00    0.00    0.00    0.00     0.00    0.00    0.00    0.00
   36    0.00    0.00    0.03    0.45    0.01    0.00  180.45    0.82    1.84    0.50    0.00    0.00    0.00    0.00    0.00     0.00    0.00    0.00    0.00
   37   19.29    2.97    0.22    0.47   10.16    0.00  184.94    0.51    0.59    3.64    0.10    0.02    0.01    0.52    0.00     0.11    0.00    0.02    0.00
   38    0.07    0.00    0.15    0.48    0.70    0.00  182.48    1.89    2.94    0.71    0.00    0.00    0.00    0.02    0.00     0.00    0.00    0.00    0.00
   39    0.00    0.00    0.11    0.50    0.22    0.00  181.26    1.05    2.20    0.64    0.00    0.00    0.00    0.00    0.00     0.00    0.00    0.00    0.00
   40    0.00    0.00    0.08    0.52    0.10    0.00  180.61    0.59    1.40    0.62    0.00    0.00    0.00    0.00    0.00     0.00    0.00    0.00    0.00
   41    0.80    0.00    0.06    0.53    0.05    0.00  180.73    0.64    0.81    0.61    0.00    0.00    0.00    0.00    0.00     0.00    0.00    0.00    0.00
   42    6.46    0.07    0.10    0.54    2.18    0.00  183.99    0.63    0.72    0.74    0.00    0.00    0.00    0.10    0.00     0.00    0.00    0.00    0.00
   43   26.55    6.57    0.35    0.58   16.01    0.00  186.23    0.12    0.14    7.44    0.28    0.02    0.01    1.00    0.00     0.28    0.00    0.05    0.00
   44    0.00    0.00    0.25    0.61    1.17    0.00  184.41    0.68    0.79    0.97    0.00    0.00    0.01    0.04    0.00     0.00    0.00    0.00    0.00
   45   25.70    6.20    0.45    0.66   15.78    0.00  186.49    0.08    0.09    7.27    0.29    0.02    0.01    1.07    0.00     0.28    0.00    0.05    0.00
   46    0.75    0.00    0.33    0.71    1.82    0.00  183.87    1.56    1.96    1.15    0.00    0.00    0.01    0.08    0.00     0.00    0.00    0.00    0.00
   47    0.00    0.00    0.24    0.75    0.46    0.00  183.06    0.35    0.65    1.03    0.00    0.00    0.00    0.01    0.00     0.00    0.00    0.00    0.00
   48    0.23    0.00    0.17    0.79    0.21    0.00  182.75    0.34    0.57    1.00    0.00    0.00    0.00    0.01    0.00     0.00    0.00    0.00    0.00
   49    0.00    0.00    0.12    0.83    0.10    0.00  181.51    1.21    2.25    0.99    0.00    0.00    0.00    0.00    0.00     0.00    0.00    0.00    0.00
   50    0.00    0.00    0.09    0.86    0.05    0.00  180.39    1.15    2.61    0.98    0.00    0.00    0.00    0.00    0.00     0.00    0.00    0.00    0.00
   51    0.00    0.00    0.07    0.89    0.02    0.00  179.62    0.80    2.04    0.99    0.00    0.00    0.00    0.00    0.00     0.00    0.00    0.00    0.00
   52    0.00    0.00    0.05    0.92    0.01    0.00  178.43    1.25    3.46    1.00    0.00    0.00    0.00    0.00    0.00     0.00    0.00    0.00    0.00
   53    0.00    0.00    0.04    0.94    0.01    0.00  177.56    0.95    2.85    1.01    0.00    0.00    0.00    0.00    0.00     0.00    0.00    0.00    0.00
   54    4.04    0.00    0.04    0.96    0.00    0.00  180.11    1.39    1.98    1.03    0.00    0.00    0.00    0.00    0.00     0.00    0.00    0.00    0.00
   55    1.66    0.00    0.03    0.97    0.00    0.00  181.17    0.57    0.66    1.04    0.00    0.00    0.00    0.00    0.00     0.00    0.00    0.00    0.00
   56    5.21    0.03    0.07    0.99    1.82    0.00  183.84    0.41    0.46    1.12    0.00    0.00    0.00    0.11    0.00     0.00    0.00    0.00    0.00
   57    0.18    0.00    0.05    1.00    0.16    0.00  183.52    0.35    0.45    1.09    0.00    0.00    0.00    0.01    0.00     0.00    0.00    0.00    0.00
   58    0.00    0.00    0.04    1.01    0.04    0.00  182.78    0.72    1.06    1.09    0.00    0.00    0.00    0.00    0.00     0.00    0.00    0.00    0.00
   59    0.00    0.00    0.03    1.02    0.02    0.00  181.25    1.59    2.88    1.09    0.00    0.00    0.00    0.00    0.00     0.00    0.00    0.00    0.00
   60    0.00    0.00    0.02    1.03    0.01    0.00  179.72    1.61    3.66    1.09    0.00    0.00    0.00    0.00    0.00     0.00    0.00    0.00    0.00
    2   97.51   15.86    3.41   20.73   52.05    0.00  179.72   25.09   44.78   40.88    0.67    0.06    0.07    3.00    0.00     0.68    0.01    0.11    0.00
   61    0.00    0.00    0.02    1.03    0.00    0.00  178.43    1.33    3.58    1.08    0.00    0.00    0.00    0.00    0.00     0.00    0.00    0.00    0.00
   62    0.00    0.00    0.01    1.04    0.00    0.00  177.49    1.00    2.96    1.08    0.00    0.00    0.00    0.00    0.00     0.00    0.00    0.00    0.00
   63    0.00    0.00    0.01    1.04    0.00    0.00  176.64    0.93    2.91    1.08    0.00    0.00    0.00    0.00    0.00     0.00    0.00    0.00    0.00
   64    0.00    0.00    0.01    1.04    0.00    0.00  175.80    0.91    3.07    1.08    0.00    0.00    0.00    0.00    0.00     0.00    0.00    0.00    0.00
   65    0.00    0.00    0.01    1.03    0.00    0.00  175.03    0.84    3.00    1.08    0.00    0.00    0.00    0.00    0.00     0.00    0.00    0.00    0.00
   66    0.88    0.00    0.01    1.03    0.00    0.00  174.73    1.21    2.58    1.07    0.00    0.00    0.00    0.00    0.00     0.00    0.00    0.00    0.00
   67    0.00    0.00    0.00    1.02    0.00    0.00  173.52    1.31    4.61    1.07    0.00    0.00    0.00    0.00    0.00     0.00    0.00    0.00    0.00
   68    0.00    0.00    0.00    1.02    0.00    0.00  172.24    1.38    5.62    1.06    0.00    0.00    0.00    0.00    0.00     0.00    0.00    0.00    0.00
   69    0.00    0.00    0.00    1.01    0.00    0.00  171.50    0.80    3.59    1.05    0.00    0.00    0.00    0.00    0.00     0.00    0.00    0.00    0.00
   70    0.00    0.00    0.00    1.00    0.00    0.00  170.90    0.67    3.05    1.04    0.00    0.00    0.00    0.00    0.00     0.00    0.00    0.00    0.00
   71    0.00    0.00    0.00    1.00    0.00    0.00  170.26    0.74    3.45    1.03    0.00    0.00    0.00    0.00    0.00     0.00    0.00    0.00    0.00
   72    0.00    0.00    0.00    0.99    0.00    0.00  169.48    0.88    4.30    1.02    0.00    0.00    0.00    0.00    0.00     0.00    0.00    0.00    0.00
   73    0.00    0.00    0.00    0.98    0.00    0.00  168.74    0.85    4.30    1.01    0.00    0.00    0.00    0.00    0.00     0.00    0.00    0.00    0.00
   74    0.00    0.00    0.00    0.96    0.00    0.00  168.18    0.64    3.34    1.00    0.00    0.00    0.00    0.00    0.00     0.00    0.00    0.00    0.00
   75    0.00    0.00    0.00    0.95    0.00    0.00  167.84    0.40    2.12    0.99    0.00    0.00    0.00    0.00    0.00     0.00    0.00    0.00    0.00
   76    0.30    0.00    0.00    0.94    0.00    0.00  167.72    0.46    1.55    0.98    0.00    0.00    0.00    0.00    0.00     0.00    0.00    0.00    0.00
   77    0.00    0.00    0.00    0.93    0.00    0.00  166.91    0.92    4.52    0.97    0.00    0.00    0.00    0.00    0.00     0.00    0.00    0.00    0.00
   78    0.00    0.00    0.00    0.91    0.00    0.00  166.12    0.90    5.08    0.95    0.00    0.00    0.00    0.00    0.00     0.00    0.00    0.00    0.00
   79    0.00    0.00    0.00    0.90    0.00    0.00  165.46    0.78    4.55    0.94    0.00    0.00    0.00    0.00    0.00     0.00    0.00    0.00    0.00
   80    0.00    0.00    0.00    0.89    0.00    0.00  164.72    0.86    5.23    0.93    0.00    0.00    0.00    0.00    0.00     0.00    0.00    0.00    0.00
   81    0.00    0.00    0.00    0.87    0.00    0.00  163.88    0.95    6.15    0.91    0.00    0.00    0.00    0.00    0.00     0.00    0.00    0.00    0.00
   82    0.00    0.00    0.00    0.86    0.00    0.00  163.25    0.73    4.87    0.90    0.00    0.00    0.00    0.00    0.00     0.00    0.00    0.00    0.00
   83    0.00    0.00    0.00    0.85    0.00    0.00  162.69    0.67    4.48    0.88    0.00    0.00    0.00    0.00    0.00     0.00    0.00    0.00    0.00
   84    0.00    0.00    0.00    0.83    0.00    0.00  162.08    0.72    4.95    0.87    0.00    0.00    0.00    0.00    0.00     0.00    0.00    0.00    0.00
   85    0.00    0.00    0.00    0.82    0.00    0.00  161.55    0.63    4.43    0.85    0.00    0.00    0.00    0.00    0.00     0.00    0.00    0.00    0.00
   86    0.00    0.00    0.00    0.80    0.00    0.00  161.05    0.61    4.35    0.84    0.00    0.00    0.00    0.00    0.00     0.00    0.00    0.00    0.00
   87    0.00    0.00    0.00    0.79    0.00    0.00  160.62    0.53    3.80    0.82    0.00    0.00    0.00    0.00    0.00     0.00    0.00    0.00    0.00
   88    0.00    0.00    0.00    0.77    0.00    0.00  160.12    0.63    4.57    0.81    0.00    0.00    0.00    0.00    0.00     0.00    0.00    0.00    0.00
   89    0.00    0.00    0.00    0.76    0.00    0.00  159.62    0.61    4.65    0.79    0.00    0.00    0.00    0.00    0.00     0.00    0.00    0.00    0.00
   90    2.71    0.00    0.01    0.74    0.00    0.00  161.31    0.98    2.37    0.79    0.00    0.00    0.00    0.00    0.05     0.00    0.00    0.00    0.00
   91    2.13    0.00    0.01    0.73    0.00    0.00  162.14    1.32    4.05    0.78    0.00    0.00    0.00    0.00    0.13     0.00    0.00    0.00    0.00
    3    6.02    0.00    0.11   28.52    0.01    0.00  162.14   26.21  122.08   29.77    0.00    0.00    0.00    0.00    0.18     0.00    0.00    0.00    0.00
[...]
     58   2   LREW02     .261E-01   35.00  138.40    0.48    0.00    0.00    0.00    0.20 1042.89    6.03  312.66  690.37    0.00    0.08    0.00   23.13    0.00    6.03
     59   2   LREW03     .211E+00   55.00  173.20    0.60    0.00    0.00    0.00    0.20 1042.89   51.35  291.23  664.66    0.01    0.15    0.01   17.38    0.00   51.35
     60   2   LREW04     .288E-01   55.00  285.90    0.31    0.00    0.00    0.00    0.20 1042.89   51.50  335.66  618.36    0.02    0.13    0.03    6.63    0.00   51.50
     61   2   LREW05     .963E-01   55.00  167.60    0.42    0.00    0.00    0.00    0.20 1042.89   53.83  285.85  669.08    0.01    0.21    0.01   21.18    0.00   53.83
     62   2   LREW06     .926E+00   55.00  192.20    0.56    0.00    0.00    0.00    0.20 1042.89   48.07  313.30  646.39    0.01    0.28    0.01   17.37    0.00   48.07
     63   2   LREW08     .387E-01   70.00  203.90    0.87    0.00    0.00    0.00    0.20 1042.89  138.28  191.49  681.36    0.05    0.43    0.16   19.22    0.00  138.28
     64   2   LREW09     .702E-01   70.00  136.40    0.54    0.00    0.00    0.00    0.20 1042.89  144.56  204.81  661.55    0.02    0.48    0.04   22.71    0.00  144.56
     65   2   LREW10     .275E+00   77.00  159.80    0.40    0.00    0.00    0.00    0.20 1042.89  213.23  124.68  675.72    0.02    0.72    0.05   23.54    0.00  213.23
     66   2   LREW03     .558E-01   66.00  173.20    0.67    0.00    0.00    0.00    0.20 1042.89  116.29  236.80  655.49    0.02    0.33    0.01   17.59    0.00  116.29
     67   2   LREW04     .180E-01   66.00  285.90    0.15    0.00    0.00    0.00    0.20 1042.89   89.95  204.99  715.76    0.00    0.26    0.01   18.45    0.00   89.96
     68   2   LREW05     .288E-01   66.00  167.60    0.42    0.00    0.00    0.00    0.20 1042.89  121.16  238.36  649.70    0.01    0.39    0.03   21.01    0.00  121.16
     69   2   LREW06     .191E+00   66.00  192.20    0.63    0.00    0.00    0.00    0.20 1042.89  131.73  317.35  556.51    0.07    0.30    0.08    6.41    0.00  131.73
     70   2   LREW08     .180E-01   77.00  203.90    0.54    0.00    0.00    0.00    0.20 1042.89  218.77  132.41  661.43    0.05    0.68    0.14   19.31    0.00  218.77
     71   2   LREW09     .135E-01   77.00  136.40    0.38    0.00    0.00    0.00    0.20 1042.89  226.32  146.47  639.16    0.01    0.75    0.04   22.30    0.00  226.32
     72   2   LREW10     .175E+00   83.00  159.80    0.42    0.00    0.00    0.00    0.20 1042.89  304.56   68.37  644.11    0.03    1.10    0.08   22.83    0.00  304.56
     73   2   LREW02     .360E-02   45.00  138.40    0.35    0.00    0.00    0.00    0.20 1042.89   22.90  324.10  660.37    0.36    0.09    0.40   17.77    0.00   22.90
     74   2   LREW03     .360E-02   66.00  173.20    0.80    0.00    0.00    0.00    0.20 1042.89  125.15  269.42  612.54    6.61    0.33    1.33   12.46    0.00  125.15
     75   2   LREW04     .891E-01   66.00  285.90    0.30    0.00    0.00    0.00    0.20 1042.89  118.99  289.29  597.68    6.34    0.26    3.58    5.25    0.00  118.99
     76   2   LREW05     .225E-01   66.00  167.60    0.27    0.00    0.00    0.00    0.20 1042.89  130.23  263.66  613.38    2.73    0.34    3.72   16.12    0.00  130.23
     77   2   LREW06     .684E-01   66.00  192.20    0.70    0.00    0.00    0.00    0.20 1042.89  119.59  294.92  592.57    5.11    0.41    3.32   12.61    0.00  119.59
     78   2   LREW08     .342E-01   77.00  203.90    0.82    0.00    0.00    0.00    0.20 1042.89  240.24  163.34  607.58   25.47    0.63   15.13   13.65    0.00  240.25
     79   2   LREW09     .126E-01   77.00  136.40    0.52    0.00    0.00    0.00    0.20 1042.89  239.43  160.80  611.11    6.55    0.68    7.67   17.86    0.00  239.43
     80   2   LREW10     .118E+00   83.00  159.80    0.30    0.00    0.00    0.00    0.20 1042.89  390.16  125.49  495.74    9.00    0.80    9.10    4.68    0.00  390.16
     81   2   LREW12     .162E+00   92.00    0.25    0.38    0.00    0.00    0.00    0.20 1042.89    0.00    0.00 1441.81    0.00    0.00    0.00    0.00    0.00    0.00
     82   2   LREW02     .270E-02   41.93  138.40    0.27    0.00  280.60    0.00    0.20 1042.89   86.85  262.35  658.87    0.14    3.43    1.24   26.82   18.74   86.86
     83   2   LREW03     .630E-02   63.29  173.20    0.89    0.00  315.93    0.00    0.20 1042.89  147.63  196.61  665.15    1.69    6.99    1.87   29.40   20.50  147.63
     84   2   LREW04     .360E-02   63.29  285.90    0.63    0.00  317.11    0.00    0.20 1042.89  124.24  151.71  741.35    1.35    6.29    2.72   30.75   21.42  124.24
     85   2   LREW06     .315E-01   63.29  192.20    0.52    0.00  323.22    0.00    0.20 1042.89  141.34  207.75  660.29    0.65    7.57    1.35   29.95   20.88  141.35
     86   2   LREW08     .279E-01   74.86  203.90    1.00    0.00  321.08    0.00    0.20 1042.89  224.32  133.98  654.55    5.34   10.31    9.87   30.08   20.96  224.32
     87   2   LREW10     .360E-02   81.09  159.80    0.38    0.00  283.65    0.00    0.20 1042.89  300.15   69.15  645.82    1.48    9.67    4.27   27.29   19.06  300.15
     88   3   LREW02     .900E-03   67.00  138.40    0.30    0.00    0.00    0.00    1.28 1105.67  171.07  278.55  619.18    2.67    0.35    3.25    3.45    1.09  171.07
     89   3   LREW03     .990E-01   77.00  173.20    0.42    0.00    0.00    0.00    1.25 1105.67  264.48  170.38  635.98    9.62    2.92    6.04   13.95    5.02  264.48
     90   3   LREW04     .180E-02   77.00  285.90    0.36    0.00    0.00    0.00    1.28 1105.67  221.56  158.48  696.63    6.43    2.65    8.56   13.44    4.95  221.56
     91   3   LREW05     .128E+00   77.00  167.60    0.50    0.00    0.00    0.00    1.25 1105.67  268.34  183.89  619.36   11.66    2.84   19.04   14.56    5.39  268.34
     92   3   LREW06     .224E+01   77.00  192.20    0.52    0.00    0.00    0.00    1.25 1105.67  254.39  193.78  622.67    9.84    4.40   12.15   13.60    4.88  254.40
     93   3   LREW08     .558E-01   83.00  203.90    0.70    0.00    0.00    0.00    1.25 1105.67  357.41  103.31  615.82   31.22    5.61   21.91   14.15    5.09  357.42
     94   3   LREW09     .558E-01   83.00  136.40    0.33    0.00    0.00    0.00    1.25 1105.67  366.93  107.79  601.04    7.82    4.96   17.66   13.98    5.03  366.94
     95   3   LREW10     .104E+00   87.00  159.80    0.60    0.00    0.00    0.00    1.28 1105.67  431.15   42.88  610.61   19.76    7.00   33.15   13.85    5.11  431.16
     96   3   LREW02     .180E-02   49.00  138.40    0.30    0.00    0.00    0.00    0.20 1105.67   47.33  365.75  653.09    0.37    0.14    0.42    2.52    1.76   47.33
     97   3   LREW03     .486E-01   69.00  173.20    0.60    0.00    0.00    0.00    0.20 1105.67  187.14  279.89  600.33    8.87    0.44    1.58    1.55    1.09  187.14
     98   3   LREW04     .594E-01   69.00  285.90    0.26    0.00    0.00    0.00    0.20 1105.67  151.84  249.11  668.46    5.00    0.38    3.60    1.68    1.17  151.85
     99   3   LREW05     .176E+00   69.00  167.60    0.56    0.00    0.00    0.00    0.20 1105.67  193.63  278.89  595.53    8.51    0.52    7.72    2.17    1.52  193.64
    100   3   LREW06     .208E+00   69.00  192.20    0.56    0.00    0.00    0.00    0.20 1105.67  180.64  307.24  579.45    6.27    0.54    4.05    1.56    1.09  180.64
    101   3   LREW08     .250E+00   79.00  203.90    0.76    0.00    0.00    0.00    0.20 1105.67  317.89  170.85  583.48   36.85    0.82   16.32    1.75    1.23  317.89
    102   3   LREW09     .108E+00   79.00  136.40    0.33    0.00    0.00    0.00    0.20 1105.67  317.23  157.60  597.20    5.14    0.82    7.45    2.56    1.79  317.24
    103   3   LREW10     .152E+00   84.00  159.80    0.44    0.00    0.00    0.00    0.20 1105.67  391.78   78.79  608.38    9.63    1.06    9.94    2.70    1.89  391.79
    104   3   LREW02     .630E-02   35.00  138.40    0.30    0.00    0.00    0.00    0.20 1105.67   10.90  364.76  692.87    0.00    0.07    0.00   22.95    0.00   10.90
    105   3   LREW03     .693E-01   55.00  173.20    0.70    0.00    0.00    0.00    0.20 1105.67   77.51  428.14  556.45    0.05    0.17    0.02    6.70    0.00   77.51
    106   3   LREW04     .104E+00   55.00  285.90    0.30    0.00    0.00    0.00    0.20 1105.67   51.45  289.36  730.05    0.01    0.21    0.01   18.39    0.00   51.46
    107   3   LREW05     .406E+00   55.00  167.60    0.75    0.00    0.00    0.00    0.20 1105.67   67.38  334.17  667.53    0.02    0.28    0.03   21.00    0.00   67.38
    108   3   LREW06     .121E+01   55.00  192.20    0.58    0.00    0.00    0.00    0.20 1105.67   61.25  366.69  639.47    0.01    0.32    0.01   17.02    0.00   61.26
    109   3   LREW08     .248E+00   70.00  203.90    0.87    0.00    0.00    0.00    0.20 1105.67  167.26  228.65  675.40    0.07    0.51    0.23   19.05    0.00  167.26
    110   3   LREW09     .414E-01   70.00  136.40    0.40    0.00    0.00    0.00    0.20 1105.67  173.56  236.50  661.32    0.01    0.54    0.03   22.53    0.00  173.56
    111   3   LREW10     .370E+00   77.00  159.80    0.52    0.00    0.00    0.00    0.20 1105.67  248.83  153.01  672.83    0.03    0.83    0.08   23.43    0.00  248.83
    112   3   LREW02     .720E-02   45.00  138.40    0.27    0.00    0.00    0.00    0.20 1105.67   30.08  359.24  678.36    0.00    0.10    0.00   22.12    0.00   30.09
    113   3   LREW03     .297E-01   66.00  173.20    0.28    0.00    0.00    0.00    0.20 1105.67  160.75  325.32  579.69    0.04    0.33    0.02    6.50    0.00  160.75
    114   3   LREW04     .711E-01   66.00  285.90    0.27    0.00    0.00    0.00    0.20 1105.67  110.64  243.08  717.40    0.01    0.34    0.02   18.36    0.00  110.64
    115   3   LREW05     .999E-01   66.00  167.60    0.60    0.00    0.00    0.00    0.20 1105.67  146.16  276.60  647.03    0.02    0.48    0.05   20.78    0.00  146.16
    116   3   LREW06     .159E+00   66.00  192.20    0.58    0.00    0.00    0.00    0.20 1105.67  134.04  299.25  636.01    0.02    0.51    0.02   17.30    0.00  134.04
    117   3   LREW08     .103E+00   77.00  203.90    0.82    0.00    0.00    0.00    0.20 1105.67  255.32  162.05  656.07    0.09    0.79    0.29   19.19    0.00  255.32
    118   3   LREW09     .243E-01   77.00  136.40    0.30    0.00    0.00    0.00    0.20 1105.67  264.34  172.03  636.59    0.01    0.84    0.03   22.16    0.00  264.34
    119   3   LREW10     .226E+00   83.00  159.80    0.42    0.00    0.00    0.00    0.20 1105.67  350.36   87.96  640.56    0.04    1.23    0.09   22.77    0.00  350.37
    120   3   LREW03     .180E-02   66.00  173.20    0.54    0.00    0.00    0.00    0.20 1105.67  150.47  302.01  614.59    4.52    0.36    1.13   12.50    0.00  150.47
    121   3   LREW04     .343E+00   66.00  285.90    0.29    0.00    0.00    0.00    0.20 1105.67  141.21  325.11  599.84    8.02    0.30    4.17    5.30    0.00  141.21
    122   3   LREW05     .333E-01   66.00  167.60    0.60    0.00    0.00    0.00    0.20 1105.67  155.87  302.28  610.18    7.53    0.44    6.82   16.04    0.00  155.87
    123   3   LREW06     .729E-01   66.00  192.20    0.70    0.00    0.00    0.00    0.20 1105.67  143.78  330.04  593.79    5.85    0.48    3.67   12.59    0.00  143.78
    124   3   LREW08     .125E+00   77.00  203.90    0.58    0.00    0.00    0.00    0.20 1105.67  276.30  187.18  608.62   23.10    0.71   15.21   13.80    0.00  276.30
    125   3   LREW09     .315E-01   77.00  136.40    0.27    0.00    0.00    0.00    0.20 1105.67  279.31  183.61  608.93    4.13    0.75    6.25   17.85    0.00  279.32
    126   3   LREW10     .238E+00   83.00  159.80    0.35    0.00    0.00    0.00    0.20 1105.67  371.09   94.32  612.95    9.90    1.07    9.59   18.39    0.00  371.09
    127   3   LREW12     .819E-01   92.00    0.25    0.40    0.00    0.00    0.00    0.20 1105.67    0.00    0.00 1441.81    0.00    0.00    0.00    0.00    0.00    0.00
    128   3   LREW03     .900E-03   63.29  173.20    0.58    0.00  320.23    0.00    0.20 1105.67  174.69  227.12  667.92    0.81    7.08    2.56   29.70   20.71  174.69
    129   3   LREW04     .180E-02   63.29  285.90    0.27    0.00  323.55    0.00    0.20 1105.67  151.24  183.95  743.92    0.52    5.83    2.12   31.31   21.82  151.25
    130   3   LREW05     .630E-02   63.29  167.60    0.40    0.00  313.41    0.00    0.20 1105.67  181.47  236.40  651.94    0.73    4.72    2.30   29.62   20.66  181.47
    131   3   LREW06     .315E-01   63.29  192.20    0.56    0.00  330.58    0.00    0.20 1105.67  167.22  241.74  661.11    0.70    9.00    1.43   30.20   21.05  167.23
    132   3   LREW08     .270E-02   74.86  203.90    0.40    0.00  325.16    0.00    0.20 1105.67  266.27  149.56  657.06    1.49    9.84    5.49   30.36   21.16  266.27
    133   3   LREW09     .900E-03   74.86  136.40    0.48    0.00  289.79    0.00    0.20 1105.67  282.09  164.77  625.38    1.06    9.72    4.48   27.18   18.99  282.09
    134   3   LREW10     .720E-02   81.09  159.80    0.38    0.00  283.47    0.00    0.20 1105.67  347.90   86.34  642.42    1.50    9.62    4.09   27.36   19.10  347.90



                AVE MONTHLY BASIN VALUES
                   SNOW                      WATER               SED
  MON     RAIN     FALL   SURF Q    LAT Q    YIELD       ET    YIELD      PET
          (MM)     (MM)     (MM)     (MM)     (MM)     (MM)   (T/HA)     (MM)
    1    83.91     0.01    17.78     2.56    42.84    25.36     0.55    54.49
    2    95.31     0.00    18.74     2.82    49.44    29.91     0.68    64.20
    3    95.62     0.00    28.32     2.40    64.56    36.90     1.31   103.11
    4    91.15     0.00    24.54     2.32    60.75    48.69     1.08   137.96
    5    64.39     0.00    10.97     1.37    39.15    73.73     0.47   164.18
    6   109.84     0.00    12.22     2.35    29.77    98.51     0.34   158.63
    7   111.43     0.00    13.32     2.17    25.84   101.36     0.19   158.72
    8   146.72     0.00    16.18     3.28    27.35    87.75     0.19   138.64
    9    75.44     0.00    17.55     1.63    27.26    60.41     0.21   120.07
   10    59.50     0.00     8.34     1.37    17.28    41.69     0.15    92.41
   11    58.63     0.00     6.85     1.29    14.40    22.70     0.13    66.50
   12   104.68     0.00    20.43     3.31    34.80    22.84     0.34    50.03

     AVE ANNUAL BASIN STRESS DAYS
               WATER STRESS DAYS =     1.99
               TEMPERATURE STRESS DAYS =     9.55
               NITROGEN STRESS DAYS =    47.06
               PHOSPHORUS STRESS DAYS =     0.14
               AERATION STRESS DAYS =     0.00
1
    SWAT May 6 2015    VER 2015/Rev 637                                             

    General Input/Output section (file.cio):                                        
    11/27/2018 12:00:00 AM ARCGIS-SWAT interface AV                                 
                                                                                    
         AVE ANNUAL BASIN VALUES

              PRECIP =   1094.3 MM
              SNOW FALL =    0.01 MM
              SNOW MELT =     0.01 MM
              SUBLIMATION =     0.00 MM
              SURFACE RUNOFF Q =   194.80 MM
              LATERAL SOIL Q =   26.80 MM
              TILE Q =     0.00 MM
              GROUNDWATER (SHAL AQ) Q =   198.72 MM
              GROUNDWATER (DEEP AQ) Q =    11.92 MM
              REVAP (SHAL AQ => SOIL/PLANTS) =   25.16 MM
              DEEP AQ RECHARGE =    11.69 MM
              TOTAL AQ RECHARGE =  233.81 MM
              TOTAL WATER YLD =   432.24 MM
              PERCOLATION OUT OF SOIL =  232.24 MM
              ET =    649.1 MM
              PET =   1307.4MM
              TRANSMISSION LOSSES =     0.00 MM
              SEPTIC INFLOW =       0.00 MM
              TOTAL SEDIMENT LOADING =     5.625 T/HA
              TILE FROM IMPOUNDED WATER =     0.000 (MM)
              EVAPORATION FROM IMPOUNDED WATER =     0.000 (MM)
              SEEPAGE INTO SOIL FROM IMPOUNDED WATER =    0.000 (MM)
              OVERFLOW FROM IMPOUNDED WATER =    0.000 (MM)
1
    SWAT May 6 2015    VER 2015/Rev 637                                             

    General Input/Output section (file.cio):                                        
    11/27/2018 12:00:00 AM ARCGIS-SWAT interface AV                                 
                                                                                    
              AVE ANNUAL BASIN VALUES


              NUTRIENTS
                   ORGANIC N =     5.862 (KG/HA)
                   ORGANIC P =     0.935 (KG/HA)
                   NO3 YIELD (SQ) =     1.417 (KG/HA)
                   NO3 YIELD (LAT) =    0.518 (KG/HA)
                   NO3 YIELD (TILE) =    0.000 (KG/HA)
                   SOLP YIELD (TILE) =    0.000(KG/HA)
                   SOLP YIELD (SURF INLET RISER) =    0.000 (KG/HA)
                   SOL P YIELD =    0.102 (KG/HA)
                   NO3 LEACHED =    16.537 (KG/HA)
                   P LEACHED =     0.093 (KG/HA)
                   N UPTAKE =    90.879 (KG/HA)
                   P UPTAKE =   19.693 (KG/HA)
                   NO3 YIELD (GWQ) =     0.132 (KG/HA)
                   ACTIVE TO SOLUTION P FLOW =        -5.187 (KG/HA)
                   ACTIVE TO STABLE P FLOW =        -4.951 (KG/HA)
                   N FERTILIZER APPLIED =    34.459 (KG/HA)
                   P FERTILIZER APPLIED =     4.395 (KG/HA)
                   N FIXATION =    33.324 (KG/HA)
                   DENITRIFICATION =     1.463 (KG/HA)
                   HUMUS MIN ON ACTIVE ORG N =     5.436 (KG/HA)
                   ACTIVE TO STABLE ORG N =     0.779 (KG/HA)
                   HUMUS MIN ON ACTIVE ORG P =    0.968 (KG/HA)
                   MIN FROM FRESH ORG N =   34.991 (KG/HA)
                   MIN FROM FRESH ORG P =   12.100 (KG/HA)
                   NO3 IN RAINFALL =    10.682 (KG/HA)
                   INITIAL NO3 IN SOIL =      64.982 (KG/HA)
                   FINAL NO3 IN SOIL =        21.217 (KG/HA)
                   INITIAL ORG N IN SOIL =    4778.182 (KG/HA)
                   FINAL ORG N IN SOIL =      4779.258 (KG/HA)
                   INITIAL MIN P IN SOIL =    3622.463 (KG/HA)
                   FINAL MIN P IN SOIL =      3522.719 (KG/HA)
                   INITIAL ORG P IN SOIL =     585.327 (KG/HA)
                   FINAL ORG P IN SOIL =     608.270 (KG/HA)
                   NO3 IN FERT =    34.459 (KG/HA)
                   AMMONIA IN FERT =     0.000 (KG/HA)
                   ORG N IN FERT =     0.000 (KG/HA)
                   MINERAL P IN FERT =     4.395 (KG/HA)
                   ORG P IN FERT =     0.000 (KG/HA)
                   N REMOVED IN YIELD =    52.679 (KG/HA)
                   P REMOVED IN YIELD =     6.795 (KG/HA)
                   AMMONIA VOLATILIZATION =     0.000 (KG/HA)
                   AMMONIA NITRIFICATION =      0.000 (KG/HA)
                   NO3 EVAP-LAYER 2 TO 1 =   32.967

                   DIE-GRO P Q =       0.0 (No/HA)
                   DIE-GRO LP Q =       0.0 (No/HA)
                   DIE-GRO P SED =      0.0 (No/HA)
                   DIE-GRO LP SED =      0.0 (No/HA)
                   BACT P RUNOFF =      0.0 (No/HA)
                   BACT LP RUNOFF =      0.0 (No/HA)
                   BACT P SEDIMENT =      0.0 (No/HA)
                   BACT LP SEDIMENT =      0.0 (No/HA)
                   BACT P INCORP =      0.0 (No/HA)
                   BACT LP INCORP =      0.0 (No/HA)

                   NITRATE SEPTIC =         0.00 (kg/ha)
                   AMMONIA SEPTIC =         0.00 (kg/ha)
                   ORG N SEPTIC =         0.00 (kg/ha)
                   FRESH ORGN SEPTIC =         0.00 (kg/ha)
                   ORG P SEPTIC =         0.00 (kg/ha)
                   FRESH ORGP SEPTIC =         0.00 (kg/ha)
                   SOL P SEPTIC =         0.00 (kg/ha)
                   BOD SEPTIC =         0.00 (kg/ha)
