1
    SWAT Apr 12 2013    VER 2012/Rev 591                                                                 0/ 0/   0      0: 0: 0

    General Input/Output section (file.cio):                                        
    11/14/2011 12:00:00 AM ARCGIS-SWAT interface AV                                 
                                                                                    


       SUB      GIS  MON   AREAkm2  PRECIPmm SNOMELTmm     PETmm      ETmm      SWmm    PERCmm    SURQmm    GW_Qmm    WYLDmm  SYLDt/ha ORGNkg/ha ORGPkg/haNSURQkg/ha SOLPkg/ha SEDPkg/ha LAT Q(mm)LATNO3kg/hGWNO3kg/haCHOLAmic/LCBODU mg/L DOXQ mg/L TNO3kg/ha
BIGSUB   1        0    1.12360E+04    51.400    11.225    15.052     7.470    66.561     0.000     0.004     0.000     0.071     0.000     0.000     0.000     0.000     0.000     0.000     0.067     0.000     0.000 .00000E+00 0.000E+00 0.000E+00 0.000E+00
BIGSUB   2        0    1.37400E+03    51.400    11.225    15.113     7.558    65.915     0.000     0.001     0.000     0.401     0.000     0.000     0.000     0.000     0.000     0.000     0.400     0.002     0.000 .00000E+00 0.000E+00 0.000E+00 0.000E+00
BIGSUB   3        0    1.14590E+04    51.400    11.225    15.050     7.519    67.383     0.000     0.001     0.000     0.084     0.000     0.000     0.000     0.000     0.000     0.000     0.083     0.000     0.000 .00000E+00 0.000E+00 0.000E+00 0.000E+00
BIGSUB   4        0    1.91800E+03    51.400    11.225    15.061     7.494    66.903     0.000     0.001     0.000     0.066     0.000     0.000     0.000     0.000     0.000     0.000     0.065     0.000     0.000 .00000E+00 0.000E+00 0.000E+00 0.000E+00
BIGSUB   5        0    1.37770E+04    51.400    11.225    15.160     7.654    67.203     0.000     0.002     0.000     0.057     0.000     0.000     0.000     0.000     0.000     0.000     0.055     0.000     0.000 .00000E+00 0.000E+00 0.000E+00 0.000E+00
BIGSUB   6        0    1.18250E+04    51.400    11.225    15.279     7.778    66.587     0.000     0.000     0.000     0.062     0.000     0.000     0.000     0.000     0.000     0.000     0.061     0.000     0.000 .00000E+00 0.000E+00 0.000E+00 0.000E+00
BIGSUB   7        0    1.14660E+04    51.400    11.225    15.290     7.596    64.545     0.000     0.185     0.000     0.194     0.000     0.000     0.000     0.004     0.000     0.000     0.009     0.000     0.000 .00000E+00 0.000E+00 0.000E+00 0.000E+00
BIGSUB   8        0    1.34940E+04    51.400    11.225    15.520     7.694    64.462     0.000     0.086     0.000     0.158     0.000     0.000     0.000     0.002     0.000     0.000     0.072     0.001     0.000 .00000E+00 0.000E+00 0.000E+00 0.000E+00
BIGSUB   9        0    1.47420E+04    26.400    12.813    16.126     5.319    25.819     0.000     0.000     0.000     0.012     0.000     0.000     0.000     0.000     0.000     0.000     0.012     0.000     0.000 .00000E+00 0.000E+00 0.000E+00 0.000E+00
BIGSUB  10        0    1.13380E+04    26.400    12.807    16.283     6.719    22.930     0.000     0.000     0.000     0.010     0.000     0.000     0.000     0.000     0.000     0.000     0.010     0.000     0.000 .00000E+00 0.000E+00 0.000E+00 0.000E+00
BIGSUB  11        0    1.24060E+04    38.272    37.456    20.882     9.323    52.135     0.000     1.133     0.869     2.022     0.107     0.139     0.016     0.012     0.000     0.030     0.020     0.000     0.034 .00000E+00 0.000E+00 0.000E+00 0.000E+00
BIGSUB  12        0    1.19770E+04    46.500     4.125    14.944     6.874    53.831     0.000     0.000     0.000     0.011     0.000     0.000     0.000     0.000     0.000     0.000     0.011     0.000     0.000 .00000E+00 0.000E+00 0.000E+00 0.000E+00
BIGSUB  13        0    1.16410E+04    38.272    37.453    21.038    10.782    49.632     0.000     1.636     2.132     3.781     0.122     0.180     0.021     0.017     0.000     0.038     0.013     0.000     0.079 .00000E+00 0.000E+00 0.000E+00 0.000E+00
BIGSUB  14        0    1.52740E+04    46.500     4.125    15.141     6.789    52.362     0.000     0.000     0.171     0.194     0.000     0.000     0.000     0.000     0.000     0.000     0.023     0.000     0.002 .00000E+00 0.000E+00 0.000E+00 0.000E+00
BIGSUB  15        0    1.42200E+03    38.272    37.451    21.185    10.283    50.917     0.000     1.534     1.700     3.247     0.073     0.127     0.015     0.014     0.000     0.027     0.012     0.000     0.060 .00000E+00 0.000E+00 0.000E+00 0.000E+00
BIGSUB  16        0    1.13850E+04    38.272    37.448    21.310     8.354    53.940     0.000     0.409     0.184     0.606     0.006     0.012     0.001     0.004     0.000     0.003     0.013     0.000     0.004 .00000E+00 0.000E+00 0.000E+00 0.000E+00
BIGSUB  17        0    1.17180E+04    46.500     4.125    15.342     6.707    49.104     0.000     0.011     0.611     0.629     0.000     0.000     0.000     0.001     0.000     0.000     0.008     0.000     0.010 .00000E+00 0.000E+00 0.000E+00 0.000E+00
BIGSUB  18        0    1.26090E+04    46.500     4.125    15.277     6.882    53.029     0.000     0.000     0.000     0.016     0.000     0.000     0.000     0.000     0.000     0.000     0.016     0.000     0.000 .00000E+00 0.000E+00 0.000E+00 0.000E+00
BIGSUB  19        0    1.25380E+04    46.500     4.125    15.474     6.845    51.651     0.000     0.000     0.552     0.589     0.000     0.000     0.000     0.000     0.000     0.000     0.037     0.001     0.006 .00000E+00 0.000E+00 0.000E+00 0.000E+00
BIGSUB  20        0    1.19820E+04    46.500     4.125    15.535     6.795    51.215     0.000     0.000     0.749     0.794     0.000     0.000     0.000     0.000     0.000     0.000     0.045     0.001     0.009 .00000E+00 0.000E+00 0.000E+00 0.000E+00
BIGSUB   1        0    2.12360E+04    40.600    43.800    25.836    17.765    96.966     0.000     4.352     0.000     4.401     0.915     1.081     0.127     0.011     0.001     0.298     0.049     0.000     0.000 .00000E+00 0.000E+00 0.000E+00 0.000E+00
BIGSUB   2        0    2.37400E+03    40.600    43.798    25.908    17.776    95.448     0.000     4.995     0.000     5.232     2.850     2.228     0.261     0.012     0.001     0.616     0.237     0.002     0.000 .00000E+00 0.000E+00 0.000E+00 0.000E+00
BIGSUB   3        0    2.14590E+04    40.600    43.800    25.835    17.084    96.293     0.000     6.492     0.000     6.556     1.720     1.919     0.225     0.015     0.001     0.553     0.064     0.000     0.000 .00000E+00 0.000E+00 0.000E+00 0.000E+00
BIGSUB   4        0    2.91800E+03    40.600    43.800    25.847    17.500    96.712     0.000     5.265     0.000     5.313     1.238     1.312     0.154     0.013     0.001     0.366     0.048     0.000     0.000 .00000E+00 0.000E+00 0.000E+00 0.000E+00
BIGSUB   5        0    2.37770E+04    40.600    43.795    25.964    17.476    94.519     0.000     7.437     0.000     7.479     0.921     2.168     0.257     0.018     0.002     0.492     0.042     0.000     0.000 .00000E+00 0.000E+00 0.000E+00 0.000E+00
BIGSUB   6        0    2.18250E+04    40.600    43.790    26.104    17.002    90.465     0.000    11.141     0.000    11.193     2.615     3.800     0.455     0.026     0.002     0.860     0.052     0.000     0.000 .00000E+00 0.000E+00 0.000E+00 0.000E+00
BIGSUB   7        0    2.14660E+04    40.600    43.789    26.117    17.267    78.035     0.000    21.092     0.000    21.100     1.972     4.707     0.560     0.061     0.004     1.039     0.008     0.000     0.000 .00000E+00 0.000E+00 0.000E+00 0.000E+00
BIGSUB   8        0    2.34940E+04    40.600    43.779    26.378    17.936    80.246     0.000    18.670     0.000    18.716     7.383     8.383     0.983     0.051     0.003     1.772     0.047     0.000     0.000 .00000E+00 0.000E+00 0.000E+00 0.000E+00
BIGSUB   9        0    2.47420E+04    35.500    36.773    23.388    11.672    61.236     0.000     0.021     0.000     0.036     0.000     0.000     0.000     0.000     0.000     0.000     0.014     0.001     0.000 .00000E+00 0.000E+00 0.000E+00 0.000E+00
BIGSUB  10        0    2.13380E+04    35.500    36.769    23.547    11.675    58.475     0.000     0.000     0.000     0.010     0.000     0.000     0.000     0.000     0.000     0.000     0.010     0.000     0.000 .00000E+00 0.000E+00 0.000E+00 0.000E+00
BIGSUB  11        0    2.24060E+04    26.224     9.666    21.797    12.474    48.787     0.000     1.698     0.592     2.306     0.070     0.174     0.020     0.011     0.000     0.037     0.015     0.000     0.020 .00000E+00 0.000E+00 0.000E+00 0.000E+00
BIGSUB  12        0    2.19770E+04    44.900    32.625    19.464     8.110    77.174     0.000     2.410     0.000     2.419     0.039     0.192     0.022     0.009     0.001     0.036     0.009     0.000     0.000 .00000E+00 0.000E+00 0.000E+00 0.000E+00
BIGSUB  13        0    2.16410E+04    26.224     9.666    21.916    13.366    44.678     0.000     2.745     1.457     4.213     0.083     0.281     0.033     0.018     0.000     0.060     0.011     0.000     0.046 .00000E+00 0.000E+00 0.000E+00 0.000E+00
BIGSUB  14        0    2.52740E+04    44.900    32.625    19.642     8.044    78.197     0.000     0.225     0.071     0.315     0.000     0.000     0.000     0.007     0.000     0.000     0.019     0.000     0.001 .00000E+00 0.000E+00 0.000E+00 0.000E+00
BIGSUB  15        0    2.42200E+03    26.224     9.666    22.027    13.068    46.800     0.000     1.673     1.156     2.839     0.047     0.117     0.014     0.010     0.000     0.025     0.010     0.000     0.035 .00000E+00 0.000E+00 0.000E+00 0.000E+00
BIGSUB  16        0    2.13850E+04    26.224     9.666    22.122    11.843    52.013     0.000     0.667     0.084     0.761     0.003     0.015     0.002     0.004     0.000     0.003     0.010     0.000     0.002 .00000E+00 0.000E+00 0.000E+00 0.000E+00
BIGSUB  17        0    2.17180E+04    44.900    32.625    19.824     8.166    73.829     0.000     0.884     0.323     1.214     0.007     0.033     0.004     0.016     0.000     0.007     0.007     0.000     0.004 .00000E+00 0.000E+00 0.000E+00 0.000E+00
BIGSUB  18        0    2.26090E+04    44.900    32.625    19.765     7.783    79.552     0.000     0.028     0.000     0.042     0.000     0.000     0.000     0.001     0.000     0.000     0.014     0.000     0.000 .00000E+00 0.000E+00 0.000E+00 0.000E+00
BIGSUB  19        0    2.25380E+04    44.900    32.625    19.942     8.117    77.908     0.000     0.006     0.318     0.348     0.000     0.000     0.000     0.000     0.000     0.000     0.024     0.000     0.003 .00000E+00 0.000E+00 0.000E+00 0.000E+00
BIGSUB  20        0    2.19820E+04    44.900    32.625    19.997     8.179    76.790     0.000     0.527     0.432     0.988     0.005     0.016     0.002     0.002     0.000     0.004     0.029     0.001     0.004 .00000E+00 0.000E+00 0.000E+00 0.000E+00
BIGSUB   1        0    3.12360E+04    40.400     3.000    69.276    39.574    97.611     0.000     0.050     0.000     0.117     0.005     0.010     0.001     0.001     0.000     0.002     0.067     0.001     0.000 .00000E+00 0.000E+00 0.000E+00 0.000E+00
BIGSUB   2        0    3.37400E+03    40.400     3.000    69.392    39.700    95.737     0.000     0.041     0.000     0.387     0.012     0.014     0.002     0.000     0.000     0.003     0.346     0.003     0.000 .00000E+00 0.000E+00 0.000E+00 0.000E+00
BIGSUB   3        0    3.14590E+04    40.400     3.000    69.274    39.905    96.626     0.000     0.031     0.000     0.115     0.011     0.012     0.001     0.000     0.000     0.002     0.084     0.001     0.000 .00000E+00 0.000E+00 0.000E+00 0.000E+00
BIGSUB   4        0    3.91800E+03    40.400     3.000    69.294    39.713    97.239     0.000     0.053     0.000     0.117     0.012     0.016     0.002     0.000     0.000     0.003     0.065     0.001     0.000 .00000E+00 0.000E+00 0.000E+00 0.000E+00
BIGSUB   5        0    3.37770E+04    40.400     3.000    69.482    40.121    94.676     0.000     0.020     0.000     0.076     0.000     0.000     0.000     0.000     0.000     0.000     0.057     0.000     0.000 .00000E+00 0.000E+00 0.000E+00 0.000E+00
BIGSUB   6        0    3.18250E+04    40.400     3.000    69.706    40.135    90.636     0.000     0.002     0.000     0.070     0.000     0.000     0.000     0.000     0.000     0.000     0.069     0.001     0.000 .00000E+00 0.000E+00 0.000E+00 0.000E+00
BIGSUB   7        0    3.14660E+04    40.400     3.000    69.727    37.979    80.035     0.000     0.175     0.000     0.184     0.000     0.001     0.000     0.002     0.000     0.000     0.009     0.000     0.000 .00000E+00 0.000E+00 0.000E+00 0.000E+00
BIGSUB   8        0    3.34940E+04    40.400     3.000    70.158    38.302    82.063     0.000     0.097     0.000     0.161     0.008     0.013     0.002     0.001     0.000     0.003     0.064     0.001     0.000 .00000E+00 0.000E+00 0.000E+00 0.000E+00
BIGSUB   9        0    3.47420E+04    44.100     0.500    61.109    30.960    74.197     0.000     0.015     0.000     0.060     0.000     0.000     0.000     0.001     0.000     0.000     0.045     0.001     0.000 .00000E+00 0.000E+00 0.000E+00 0.000E+00
BIGSUB  10        0    3.13380E+04    44.100     0.500    61.359    29.273    71.931     0.000     0.945     0.000     0.963     0.131     0.243     0.029     0.008     0.000     0.053     0.018     0.001     0.000 .00000E+00 0.000E+00 0.000E+00 0.000E+00
BIGSUB  11        0    3.24060E+04     1.524    15.721    54.749    23.717    37.742     0.000     4.482     0.236     4.734     0.297     0.521     0.060     0.015     0.001     0.111     0.015     0.000     0.007 .00000E+00 0.000E+00 0.000E+00 0.000E+00
BIGSUB  12        0    3.19770E+04    82.900    67.538    49.658    40.460   148.021     0.000    16.395     0.000    16.410     0.489     2.005     0.229     0.046     0.004     0.381     0.015     0.000     0.000 .00000E+00 0.000E+00 0.000E+00 0.000E+00
BIGSUB  13        0    3.16410E+04     1.524    15.721    54.925    22.669    33.140     0.000     6.022     0.616     6.650     0.351     0.736     0.085     0.022     0.001     0.157     0.012     0.000     0.016 .00000E+00 0.000E+00 0.000E+00 0.000E+00
BIGSUB  14        0    3.52740E+04    82.900    67.513    49.929    40.395   139.534     6.282    18.556     0.573    19.163     0.865     2.866     0.330     0.061     0.004     0.559     0.034     0.001     0.021 .00000E+00 0.000E+00 0.000E+00 0.000E+00
BIGSUB  15        0    3.42200E+03     1.524    15.721    55.089    23.199    35.791     0.000     4.981     0.498     5.489     0.219     0.426     0.050     0.017     0.001     0.091     0.010     0.000     0.013 .00000E+00 0.000E+00 0.000E+00 0.000E+00
BIGSUB  16        0    3.13850E+04     1.524    15.721    55.229    25.038    41.322     0.000     2.806     0.000     2.817     0.035     0.098     0.011     0.008     0.001     0.024     0.010     0.000     0.000 .00000E+00 0.000E+00 0.000E+00 0.000E+00
BIGSUB  17        0    3.17180E+04    82.900    67.487    50.204    40.664    96.575    27.264    35.439     2.927    38.376     1.052     3.762     0.436     0.122     0.008     0.808     0.010     0.000     0.143 .00000E+00 0.000E+00 0.000E+00 0.000E+00
BIGSUB  18        0    3.26090E+04    82.900    67.495    50.115    39.944   157.708     0.000     9.219     0.000     9.242     0.108     0.450     0.051     0.025     0.002     0.113     0.023     0.000     0.000 .00000E+00 0.000E+00 0.000E+00 0.000E+00
BIGSUB  19        0    3.25380E+04    82.900    67.470    50.383    40.598   137.408    10.706    17.070     1.090    18.253     1.287     2.743     0.311     0.061     0.004     0.558     0.093     0.002     0.027 .00000E+00 0.000E+00 0.000E+00 0.000E+00
BIGSUB  20        0    3.19820E+04    82.900    67.462    50.466    40.579   131.205    14.421    18.274     1.486    19.871     1.351     3.122     0.355     0.071     0.004     0.632     0.111     0.002     0.037 .00000E+00 0.000E+00 0.000E+00 0.000E+00
BIGSUB   1        0    4.12360E+04    69.300     3.800   105.468    52.029   109.376     2.227     2.895     0.000     2.983     0.749     1.039     0.124     0.014     0.001     0.217     0.088     0.001     0.000 .00000E+00 0.000E+00 0.000E+00 0.000E+00
BIGSUB   2        0    4.37400E+03    69.300     3.800   105.546    52.067   109.107     0.677     2.432     0.000     2.914     1.850     1.445     0.172     0.012     0.000     0.302     0.482     0.004     0.000 .00000E+00 0.000E+00 0.000E+00 0.000E+00
BIGSUB   3        0    4.14590E+04    69.300     3.800   105.466    52.316   110.658     1.091     1.554     0.000     1.663     1.106     0.911     0.108     0.007     0.000     0.190     0.109     0.001     0.000 .00000E+00 0.000E+00 0.000E+00 0.000E+00
BIGSUB   4        0    4.91800E+03    69.300     3.800   105.480    52.152   109.939     1.765     2.408     0.000     2.494     1.039     1.042     0.124     0.011     0.000     0.218     0.085     0.001     0.000 .00000E+00 0.000E+00 0.000E+00 0.000E+00
BIGSUB   5        0    4.37770E+04    69.300     3.800   105.607    52.285   108.851     1.063     1.450     0.000     1.524     0.466     0.605     0.072     0.007     0.000     0.127     0.075     0.001     0.000 .00000E+00 0.000E+00 0.000E+00 0.000E+00
BIGSUB   6        0    4.18250E+04    69.300     3.800   105.759    52.279   106.955     0.000     0.443     0.000     0.535     0.202     0.150     0.018     0.001     0.000     0.033     0.091     0.001     0.000 .00000E+00 0.000E+00 0.000E+00 0.000E+00
BIGSUB   7        0    4.14660E+04    69.300     3.800   105.773    50.600    89.450     2.583     5.588     0.000     5.598     0.546     1.249     0.150     0.028     0.001     0.280     0.010     0.000     0.000 .00000E+00 0.000E+00 0.000E+00 0.000E+00
BIGSUB   8        0    4.34940E+04    69.300     3.800   106.061    50.642    93.011     2.474     4.603     0.000     4.693     1.637     1.574     0.187     0.023     0.001     0.342     0.091     0.001     0.000 .00000E+00 0.000E+00 0.000E+00 0.000E+00
BIGSUB   9        0    4.47420E+04    55.600     0.000    96.776    38.190    91.140     0.000     0.296     0.000     0.351     0.086     0.134     0.016     0.003     0.000     0.028     0.054     0.001     0.000 .00000E+00 0.000E+00 0.000E+00 0.000E+00
BIGSUB  10        0    4.13380E+04    55.600     0.000    96.948    35.356    89.228     0.000     2.576     0.000     2.598     0.940     1.208     0.143     0.019     0.001     0.269     0.022     0.001     0.000 .00000E+00 0.000E+00 0.000E+00 0.000E+00
BIGSUB  11        0    4.24060E+04    57.529     0.000    88.662    36.703    58.474     0.000     0.004     0.013     0.035     0.000     0.000     0.000     0.000     0.000     0.000     0.018     0.000     0.000 .00000E+00 0.000E+00 0.000E+00 0.000E+00
BIGSUB  12        0    4.19770E+04    64.700     0.000    85.056    42.574   165.068     0.000     3.650     0.000     3.670     0.208     0.585     0.068     0.034     0.001     0.113     0.019     0.000     0.000 .00000E+00 0.000E+00 0.000E+00 0.000E+00
BIGSUB  13        0    4.16410E+04    57.529     0.000    88.783    33.874    56.708     0.000     0.009     0.051     0.071     0.000     0.000     0.000     0.000     0.000     0.000     0.012     0.000     0.001 .00000E+00 0.000E+00 0.000E+00 0.000E+00
BIGSUB  14        0    4.52740E+04    64.700     0.000    85.253    41.333   148.524     9.123     3.416     1.978     5.439     0.229     0.606     0.071     0.026     0.001     0.116     0.045     0.001     0.123 .00000E+00 0.000E+00 0.000E+00 0.000E+00
BIGSUB  15        0    4.42200E+03    57.529     0.000    88.895    35.069    58.189     0.000     0.003     0.046     0.060     0.000     0.000     0.000     0.000     0.000     0.000     0.011     0.000     0.001 .00000E+00 0.000E+00 0.000E+00 0.000E+00
BIGSUB  16        0    4.13850E+04    57.529     0.000    88.991    39.215    59.594     0.000     0.000     0.000     0.012     0.000     0.000     0.000     0.000     0.000     0.000     0.012     0.000     0.000 .00000E+00 0.000E+00 0.000E+00 0.000E+00
BIGSUB  17        0    4.17180E+04    64.700     0.000    85.453    37.682    96.968    16.380     7.409     6.777    14.198     0.265     0.786     0.092     0.046     0.002     0.171     0.012     0.000     0.450 .00000E+00 0.000E+00 0.000E+00 0.000E+00
BIGSUB  18        0    4.26090E+04    64.700     0.000    85.389    43.228   174.395     3.384     0.524     0.000     0.553     0.000     0.001     0.000     0.008     0.000     0.000     0.029     0.000     0.000 .00000E+00 0.000E+00 0.000E+00 0.000E+00
BIGSUB  19        0    4.25380E+04    64.700     0.000    85.581    41.169   146.482    10.206     3.480     2.886     6.483     0.424     0.672     0.077     0.028     0.001     0.136     0.117     0.002     0.112 .00000E+00 0.000E+00 0.000E+00 0.000E+00
BIGSUB  20        0    4.19820E+04    64.700     0.000    85.641    40.430   136.626    14.037     3.981     3.922     8.042     0.424     0.767     0.088     0.030     0.001     0.155     0.139     0.002     0.154 .00000E+00 0.000E+00 0.000E+00 0.000E+00
BIGSUB   1        0    5.12360E+04    14.600     0.000   160.727    43.436    80.525     0.000     0.001     0.000     0.068     0.000     0.000     0.000     0.000     0.000     0.000     0.067     0.000     0.000 .00000E+00 0.000E+00 0.000E+00 0.000E+00
BIGSUB   2        0    5.37400E+03    14.600     0.000   160.753    43.321    80.310     0.000     0.000     0.000     0.243     0.000     0.000     0.000     0.000     0.000     0.000     0.243     0.001     0.000 .00000E+00 0.000E+00 0.000E+00 0.000E+00
BIGSUB   3        0    5.14590E+04    14.600     0.000   160.727    43.505    81.731     0.000     0.000     0.000     0.092     0.000     0.000     0.000     0.000     0.000     0.000     0.092     0.001     0.000 .00000E+00 0.000E+00 0.000E+00 0.000E+00
BIGSUB   4        0    5.91800E+03    14.600     0.000   160.731    43.470    81.052     0.000     0.000     0.000     0.066     0.000     0.000     0.000     0.000     0.000     0.000     0.066     0.000     0.000 .00000E+00 0.000E+00 0.000E+00 0.000E+00
BIGSUB   5        0    5.37770E+04    14.600     0.000   160.773    43.416    80.021     0.000     0.000     0.000     0.063     0.000     0.000     0.000     0.000     0.000     0.000     0.062     0.000     0.000 .00000E+00 0.000E+00 0.000E+00 0.000E+00
BIGSUB   6        0    5.18250E+04    14.600     0.000   160.822    44.322    77.214     0.000     0.000     0.000     0.087     0.000     0.000     0.000     0.000     0.000     0.000     0.087     0.001     0.000 .00000E+00 0.000E+00 0.000E+00 0.000E+00
BIGSUB   7        0    5.14660E+04    14.600     0.000   160.827    41.379    62.668     0.000     0.046     0.000     0.056     0.000     0.000     0.000     0.000     0.000     0.000     0.010     0.000     0.000 .00000E+00 0.000E+00 0.000E+00 0.000E+00
BIGSUB   8        0    5.34940E+04    14.600     0.000   160.916    44.114    63.479     0.000     0.005     0.000     0.077     0.000     0.000     0.000     0.000     0.000     0.000     0.072     0.001     0.000 .00000E+00 0.000E+00 0.000E+00 0.000E+00
BIGSUB   9        0    5.47420E+04    22.800     0.000   152.008    47.422    66.430     0.000     0.061     0.000     0.113     0.000     0.015     0.002     0.001     0.000     0.003     0.052     0.001     0.000 .00000E+00 0.000E+00 0.000E+00 0.000E+00
BIGSUB  10        0    5.13380E+04    22.800     0.000   152.061    44.590    66.527     0.000     0.881     0.000     0.905     0.358     0.505     0.060     0.004     0.000     0.113     0.024     0.001     0.000 .00000E+00 0.000E+00 0.000E+00 0.000E+00
BIGSUB  11        0    5.24060E+04    42.426     0.000   127.176    34.695    66.127     0.000     0.020     0.000     0.040     0.000     0.000     0.000     0.000     0.000     0.000     0.021     0.000     0.000 .00000E+00 0.000E+00 0.000E+00 0.000E+00
BIGSUB  12        0    5.19770E+04     7.800     0.000   138.410    42.409   130.458     0.000     0.898     0.000     0.917     0.000     0.153     0.018     0.008     0.000     0.030     0.020     0.000     0.000 .00000E+00 0.000E+00 0.000E+00 0.000E+00
BIGSUB  13        0    5.16410E+04    42.426     0.000   127.208    31.466    67.567     0.000     0.029     0.000     0.041     0.000     0.000     0.000     0.000     0.000     0.000     0.012     0.000     0.000 .00000E+00 0.000E+00 0.000E+00 0.000E+00
BIGSUB  14        0    5.52740E+04     7.800     0.000   138.467    40.221   116.098     0.000     1.055     1.184     2.284     0.001     0.111     0.013     0.008     0.000     0.021     0.045     0.001     0.071 .00000E+00 0.000E+00 0.000E+00 0.000E+00
BIGSUB  15        0    5.42200E+03    42.426     0.000   127.236    32.717    67.839     0.000     0.017     0.000     0.030     0.000     0.000     0.000     0.000     0.000     0.000     0.013     0.000     0.000 .00000E+00 0.000E+00 0.000E+00 0.000E+00
BIGSUB  16        0    5.13850E+04    42.426     0.000   127.259    37.137    64.865     0.000     0.000     0.000     0.014     0.000     0.000     0.000     0.000     0.000     0.000     0.014     0.000     0.000 .00000E+00 0.000E+00 0.000E+00 0.000E+00
BIGSUB  17        0    5.17180E+04     7.800     0.000   138.520    34.995    69.748     0.024     1.848     4.651     6.511     0.001     0.141     0.017     0.013     0.000     0.031     0.012     0.000     0.294 .00000E+00 0.000E+00 0.000E+00 0.000E+00
BIGSUB  18        0    5.26090E+04     7.800     0.000   138.503    42.852   139.340     0.000     0.396     0.000     0.426     0.000     0.000     0.000     0.003     0.000     0.000     0.030     0.000     0.000 .00000E+00 0.000E+00 0.000E+00 0.000E+00
BIGSUB  19        0    5.25380E+04     7.800     0.000   138.552    39.824   114.447     0.004     0.208     1.990     2.281     0.000     0.024     0.003     0.002     0.000     0.005     0.083     0.001     0.075 .00000E+00 0.000E+00 0.000E+00 0.000E+00
BIGSUB  20        0    5.19820E+04     7.800     0.000   138.566    38.762   105.651     0.005     0.291     2.710     3.099     0.000     0.041     0.005     0.002     0.000     0.008     0.099     0.001     0.104 .00000E+00 0.000E+00 0.000E+00 0.000E+00
BIGSUB   1        0    6.12360E+04     3.200     0.000   209.138    83.166     0.555     0.000     0.000     0.000     0.036     0.000     0.000     0.000     0.000     0.000     0.000     0.036     0.000     0.000 .00000E+00 0.000E+00 0.000E+00 0.000E+00
BIGSUB   2        0    6.37400E+03     3.200     0.000   209.116    83.336     0.159     0.000     0.000     0.000     0.067     0.000     0.000     0.000     0.000     0.000     0.000     0.067     0.000     0.000 .00000E+00 0.000E+00 0.000E+00 0.000E+00
BIGSUB   3        0    6.14590E+04     3.200     0.000   209.138    84.023     0.904     0.000     0.000     0.000     0.060     0.000     0.000     0.000     0.000     0.000     0.000     0.060     0.000     0.000 .00000E+00 0.000E+00 0.000E+00 0.000E+00
BIGSUB   4        0    6.91800E+03     3.200     0.000   209.135    83.509     0.741     0.000     0.000     0.000     0.037     0.000     0.000     0.000     0.000     0.000     0.000     0.037     0.000     0.000 .00000E+00 0.000E+00 0.000E+00 0.000E+00
BIGSUB   5        0    6.37770E+04     3.200     0.000   209.098    83.218     0.000     0.000     0.000     0.000     0.040     0.000     0.000     0.000     0.000     0.000     0.000     0.040     0.000     0.000 .00000E+00 0.000E+00 0.000E+00 0.000E+00
BIGSUB   6        0    6.18250E+04     3.200     0.000   209.052    80.411     0.000     0.000     0.000     0.000     0.066     0.000     0.000     0.000     0.000     0.000     0.000     0.066     0.001     0.000 .00000E+00 0.000E+00 0.000E+00 0.000E+00
BIGSUB   7        0    6.14660E+04     3.200     0.000   209.048    65.868     0.000     0.000     0.000     0.000     0.009     0.000     0.000     0.000     0.000     0.000     0.000     0.009     0.000     0.000 .00000E+00 0.000E+00 0.000E+00 0.000E+00
BIGSUB   8        0    6.34940E+04     3.200     0.000   208.953    66.676     0.000     0.000     0.000     0.000     0.042     0.000     0.000     0.000     0.000     0.000     0.000     0.042     0.000     0.000 .00000E+00 0.000E+00 0.000E+00 0.000E+00
BIGSUB   9        0    6.47420E+04     0.000     0.000   194.207    44.153    22.277     0.000     0.000     0.000     0.029     0.000     0.000     0.000     0.000     0.000     0.000     0.029     0.000     0.000 .00000E+00 0.000E+00 0.000E+00 0.000E+00
BIGSUB  10        0    6.13380E+04     0.000     0.000   194.144    40.090    26.437     0.000     0.000     0.000     0.022     0.000     0.000     0.000     0.000     0.000     0.000     0.021     0.000     0.000 .00000E+00 0.000E+00 0.000E+00 0.000E+00
BIGSUB  11        0    6.24060E+04     0.000     0.000   163.238    49.541    16.586     0.000     0.003     0.000     0.024     0.000     0.000     0.000     0.000     0.000     0.000     0.020     0.000     0.000 .00000E+00 0.000E+00 0.000E+00 0.000E+00
BIGSUB  12        0    6.19770E+04     0.000     0.000   178.358    51.642    78.816     0.000     0.000     0.000     0.017     0.000     0.000     0.000     0.000     0.000     0.000     0.017     0.000     0.000 .00000E+00 0.000E+00 0.000E+00 0.000E+00
BIGSUB  13        0    6.16410E+04     0.000     0.000   163.194    47.013    20.554     0.000     0.012     0.000     0.024     0.000     0.000     0.000     0.000     0.000     0.000     0.012     0.000     0.000 .00000E+00 0.000E+00 0.000E+00 0.000E+00
BIGSUB  14        0    6.52740E+04     0.000     0.000   178.273    47.621    68.477     0.000     0.000     0.284     0.320     0.000     0.000     0.000     0.000     0.000     0.000     0.036     0.001     0.015 .00000E+00 0.000E+00 0.000E+00 0.000E+00
BIGSUB  15        0    6.42200E+03     0.000     0.000   163.150    46.827    21.013     0.000     0.001     0.000     0.013     0.000     0.000     0.000     0.000     0.000     0.000     0.012     0.000     0.000 .00000E+00 0.000E+00 0.000E+00 0.000E+00
BIGSUB  16        0    6.13850E+04     0.000     0.000   163.112    50.504    14.361     0.000     0.000     0.000     0.014     0.000     0.000     0.000     0.000     0.000     0.000     0.014     0.000     0.000 .00000E+00 0.000E+00 0.000E+00 0.000E+00
BIGSUB  17        0    6.17180E+04     0.000     0.000   178.180    43.450    26.297     0.000     0.000     2.165     2.176     0.000     0.000     0.000     0.000     0.000     0.000     0.011     0.000     0.123 .00000E+00 0.000E+00 0.000E+00 0.000E+00
BIGSUB  18        0    6.26090E+04     0.000     0.000   178.211    49.647    89.693     0.000     0.000     0.000     0.025     0.000     0.000     0.000     0.000     0.000     0.000     0.025     0.000     0.000 .00000E+00 0.000E+00 0.000E+00 0.000E+00
BIGSUB  19        0    6.25380E+04     0.000     0.000   178.116    47.427    67.020     0.000     0.000     0.863     0.905     0.000     0.000     0.000     0.000     0.000     0.000     0.042     0.001     0.029 .00000E+00 0.000E+00 0.000E+00 0.000E+00
BIGSUB  20        0    6.19820E+04     0.000     0.000   178.086    46.646    59.005     0.000     0.000     1.181     1.230     0.000     0.000     0.000     0.000     0.000     0.000     0.049     0.001     0.041 .00000E+00 0.000E+00 0.000E+00 0.000E+00
BIGSUB   1        0    7.12360E+04     0.000     0.000   212.019     0.555     0.000     0.000     0.000     0.000     0.023     0.000     0.000     0.000     0.000     0.000     0.000     0.023     0.000     0.000 .00000E+00 0.000E+00 0.000E+00 0.000E+00
BIGSUB   2        0    7.37400E+03     0.000     0.000   212.020     0.159     0.000     0.000     0.000     0.000     0.038     0.000     0.000     0.000     0.000     0.000     0.000     0.038     0.000     0.000 .00000E+00 0.000E+00 0.000E+00 0.000E+00
BIGSUB   3        0    7.14590E+04     0.000     0.000   212.019     0.905     0.000     0.000     0.000     0.000     0.045     0.000     0.000     0.000     0.000     0.000     0.000     0.045     0.000     0.000 .00000E+00 0.000E+00 0.000E+00 0.000E+00
BIGSUB   4        0    7.91800E+03     0.000     0.000   212.019     0.741     0.000     0.000     0.000     0.000     0.024     0.000     0.000     0.000     0.000     0.000     0.000     0.024     0.000     0.000 .00000E+00 0.000E+00 0.000E+00 0.000E+00
BIGSUB   5        0    7.37770E+04     0.000     0.000   212.020     0.000     0.000     0.000     0.000     0.000     0.029     0.000     0.000     0.000     0.000     0.000     0.000     0.029     0.000     0.000 .00000E+00 0.000E+00 0.000E+00 0.000E+00
BIGSUB   6        0    7.18250E+04     0.000     0.000   212.020     0.000     0.000     0.000     0.000     0.000     0.053     0.000     0.000     0.000     0.000     0.000     0.000     0.053     0.000     0.000 .00000E+00 0.000E+00 0.000E+00 0.000E+00
BIGSUB   7        0    7.14660E+04     0.000     0.000   212.020     0.000     0.000     0.000     0.000     0.000     0.009     0.000     0.000     0.000     0.000     0.000     0.000     0.009     0.000     0.000 .00000E+00 0.000E+00 0.000E+00 0.000E+00
BIGSUB   8        0    7.34940E+04     0.000     0.000   212.012     0.000     0.000     0.000     0.000     0.000     0.028     0.000     0.000     0.000     0.000     0.000     0.000     0.028     0.000     0.000 .00000E+00 0.000E+00 0.000E+00 0.000E+00
BIGSUB   9        0    7.47420E+04     1.000     0.000   196.409    23.277     0.000     0.000     0.000     0.000     0.017     0.000     0.000     0.000     0.000     0.000     0.000     0.017     0.000     0.000 .00000E+00 0.000E+00 0.000E+00 0.000E+00
BIGSUB  10        0    7.13380E+04     1.000     0.000   196.401    27.437     0.000     0.000     0.000     0.000     0.020     0.000     0.000     0.000     0.000     0.000     0.000     0.020     0.000     0.000 .00000E+00 0.000E+00 0.000E+00 0.000E+00
BIGSUB  11        0    7.24060E+04     9.668     0.000   180.777    26.250     0.000     0.000     0.000     0.000     0.018     0.000     0.000     0.000     0.000     0.000     0.000     0.018     0.000     0.000 .00000E+00 0.000E+00 0.000E+00 0.000E+00
BIGSUB  12        0    7.19770E+04     0.200     0.000   186.728    79.016     0.000     0.000     0.000     0.000     0.015     0.000     0.000     0.000     0.000     0.000     0.000     0.015     0.000     0.000 .00000E+00 0.000E+00 0.000E+00 0.000E+00
BIGSUB  13        0    7.16410E+04     9.668     0.000   180.767    30.221     0.000     0.000     0.000     0.000     0.011     0.000     0.000     0.000     0.000     0.000     0.000     0.011     0.000     0.000 .00000E+00 0.000E+00 0.000E+00 0.000E+00
BIGSUB  14        0    7.52740E+04     0.200     0.000   186.711    68.677     0.000     0.000     0.000     0.044     0.075     0.000     0.000     0.000     0.000     0.000     0.000     0.031     0.001     0.002 .00000E+00 0.000E+00 0.000E+00 0.000E+00
BIGSUB  15        0    7.42200E+03     9.668     0.000   180.756    30.679     0.000     0.000     0.000     0.000     0.011     0.000     0.000     0.000     0.000     0.000     0.000     0.011     0.000     0.000 .00000E+00 0.000E+00 0.000E+00 0.000E+00
BIGSUB  16        0    7.13850E+04     9.668     0.000   180.745    24.026     0.000     0.000     0.000     0.000     0.012     0.000     0.000     0.000     0.000     0.000     0.000     0.012     0.000     0.000 .00000E+00 0.000E+00 0.000E+00 0.000E+00
BIGSUB  17        0    7.17180E+04     0.200     0.000   186.687    26.498     0.000     0.000     0.000     0.990     1.000     0.000     0.000     0.000     0.000     0.000     0.000     0.010     0.000     0.051 .00000E+00 0.000E+00 0.000E+00 0.000E+00
BIGSUB  18        0    7.26090E+04     0.200     0.000   186.696    89.893     0.000     0.000     0.000     0.000     0.023     0.000     0.000     0.000     0.000     0.000     0.000     0.023     0.000     0.000 .00000E+00 0.000E+00 0.000E+00 0.000E+00
BIGSUB  19        0    7.25380E+04     0.200     0.000   186.668    67.220     0.000     0.000     0.000     0.335     0.359     0.000     0.000     0.000     0.000     0.000     0.000     0.024     0.000     0.010 .00000E+00 0.000E+00 0.000E+00 0.000E+00
BIGSUB  20        0    7.19820E+04     0.200     0.000   186.659    59.205     0.000     0.000     0.000     0.464     0.491     0.000     0.000     0.000     0.000     0.000     0.000     0.027     0.000     0.014 .00000E+00 0.000E+00 0.000E+00 0.000E+00
BIGSUB   1        0    8.12360E+04     0.000     0.000   189.929     0.000     0.000     0.000     0.000     0.000     0.014     0.000     0.000     0.000     0.000     0.000     0.000     0.014     0.000     0.000 .00000E+00 0.000E+00 0.000E+00 0.000E+00
BIGSUB   2        0    8.37400E+03     0.000     0.000   190.021     0.000     0.000     0.000     0.000     0.000     0.022     0.000     0.000     0.000     0.000     0.000     0.000     0.022     0.000     0.000 .00000E+00 0.000E+00 0.000E+00 0.000E+00
BIGSUB   3        0    8.14590E+04     0.000     0.000   189.927     0.000     0.000     0.000     0.000     0.000     0.034     0.000     0.000     0.000     0.000     0.000     0.000     0.034     0.000     0.000 .00000E+00 0.000E+00 0.000E+00 0.000E+00
BIGSUB   4        0    8.91800E+03     0.000     0.000   189.943     0.000     0.000     0.000     0.000     0.000     0.016     0.000     0.000     0.000     0.000     0.000     0.000     0.016     0.000     0.000 .00000E+00 0.000E+00 0.000E+00 0.000E+00
BIGSUB   5        0    8.37770E+04     0.000     0.000   190.092     0.000     0.000     0.000     0.000     0.000     0.021     0.000     0.000     0.000     0.000     0.000     0.000     0.021     0.000     0.000 .00000E+00 0.000E+00 0.000E+00 0.000E+00
BIGSUB   6        0    8.18250E+04     0.000     0.000   190.268     0.000     0.000     0.000     0.000     0.000     0.040     0.000     0.000     0.000     0.000     0.000     0.000     0.040     0.000     0.000 .00000E+00 0.000E+00 0.000E+00 0.000E+00
BIGSUB   7        0    8.14660E+04     0.000     0.000   190.284     0.000     0.000     0.000     0.000     0.000     0.008     0.000     0.000     0.000     0.000     0.000     0.000     0.008     0.000     0.000 .00000E+00 0.000E+00 0.000E+00 0.000E+00
BIGSUB   8        0    8.34940E+04     0.000     0.000   190.617     0.000     0.000     0.000     0.000     0.000     0.019     0.000     0.000     0.000     0.000     0.000     0.000     0.019     0.000     0.000 .00000E+00 0.000E+00 0.000E+00 0.000E+00
BIGSUB   9        0    8.47420E+04     0.500     0.000   187.150     0.500     0.000     0.000     0.000     0.000     0.010     0.000     0.000     0.000     0.000     0.000     0.000     0.010     0.000     0.000 .00000E+00 0.000E+00 0.000E+00 0.000E+00
BIGSUB  10        0    8.13380E+04     0.500     0.000   187.362     0.500     0.000     0.000     0.000     0.000     0.017     0.000     0.000     0.000     0.000     0.000     0.000     0.017     0.000     0.000 .00000E+00 0.000E+00 0.000E+00 0.000E+00
BIGSUB  11        0    8.24060E+04     0.000     0.000   176.056     0.000     0.000     0.000     0.000     0.000     0.016     0.000     0.000     0.000     0.000     0.000     0.000     0.016     0.000     0.000 .00000E+00 0.000E+00 0.000E+00 0.000E+00
BIGSUB  12        0    8.19770E+04     0.000     0.000   180.679     0.000     0.000     0.000     0.000     0.000     0.013     0.000     0.000     0.000     0.000     0.000     0.000     0.013     0.000     0.000 .00000E+00 0.000E+00 0.000E+00 0.000E+00
BIGSUB  13        0    8.16410E+04     0.000     0.000   176.210     0.000     0.000     0.000     0.000     0.000     0.010     0.000     0.000     0.000     0.000     0.000     0.000     0.010     0.000     0.000 .00000E+00 0.000E+00 0.000E+00 0.000E+00
BIGSUB  14        0    8.52740E+04     0.000     0.000   180.945     0.000     0.000     0.000     0.000     0.000     0.026     0.000     0.000     0.000     0.000     0.000     0.000     0.026     0.000     0.000 .00000E+00 0.000E+00 0.000E+00 0.000E+00
BIGSUB  15        0    8.42200E+03     0.000     0.000   176.352     0.000     0.000     0.000     0.000     0.000     0.010     0.000     0.000     0.000     0.000     0.000     0.000     0.010     0.000     0.000 .00000E+00 0.000E+00 0.000E+00 0.000E+00
BIGSUB  16        0    8.13850E+04     0.000     0.000   176.472     0.000     0.000     0.000     0.000     0.000     0.011     0.000     0.000     0.000     0.000     0.000     0.000     0.011     0.000     0.000 .00000E+00 0.000E+00 0.000E+00 0.000E+00
BIGSUB  17        0    8.17180E+04     0.000     0.000   181.211     0.000     0.000     0.000     0.000     0.133     0.142     0.000     0.000     0.000     0.000     0.000     0.000     0.009     0.000     0.006 .00000E+00 0.000E+00 0.000E+00 0.000E+00
BIGSUB  18        0    8.26090E+04     0.000     0.000   181.126     0.000     0.000     0.000     0.000     0.000     0.020     0.000     0.000     0.000     0.000     0.000     0.000     0.020     0.000     0.000 .00000E+00 0.000E+00 0.000E+00 0.000E+00
BIGSUB  19        0    8.25380E+04     0.000     0.000   181.382     0.000     0.000     0.000     0.000     0.014     0.028     0.000     0.000     0.000     0.000     0.000     0.000     0.014     0.000     0.000 .00000E+00 0.000E+00 0.000E+00 0.000E+00
BIGSUB  20        0    8.19820E+04     0.000     0.000   181.460     0.000     0.000     0.000     0.000     0.019     0.036     0.000     0.000     0.000     0.000     0.000     0.000     0.016     0.000     0.001 .00000E+00 0.000E+00 0.000E+00 0.000E+00
BIGSUB   1        0    9.12360E+04     0.000     0.000   154.252     0.000     0.000     0.000     0.000     0.000     0.010     0.000     0.000     0.000     0.000     0.000     0.000     0.010     0.000     0.000 .00000E+00 0.000E+00 0.000E+00 0.000E+00
BIGSUB   2        0    9.37400E+03     0.000     0.000   154.449     0.000     0.000     0.000     0.000     0.000     0.018     0.000     0.000     0.000     0.000     0.000     0.000     0.018     0.000     0.000 .00000E+00 0.000E+00 0.000E+00 0.000E+00
BIGSUB   3        0    9.14590E+04     0.000     0.000   154.247     0.000     0.000     0.000     0.000     0.000     0.027     0.000     0.000     0.000     0.000     0.000     0.000     0.027     0.000     0.000 .00000E+00 0.000E+00 0.000E+00 0.000E+00
BIGSUB   4        0    9.91800E+03     0.000     0.000   154.282     0.000     0.000     0.000     0.000     0.000     0.011     0.000     0.000     0.000     0.000     0.000     0.000     0.011     0.000     0.000 .00000E+00 0.000E+00 0.000E+00 0.000E+00
BIGSUB   5        0    9.37770E+04     0.000     0.000   154.602     0.000     0.000     0.000     0.000     0.000     0.016     0.000     0.000     0.000     0.000     0.000     0.000     0.016     0.000     0.000 .00000E+00 0.000E+00 0.000E+00 0.000E+00
BIGSUB   6        0    9.18250E+04     0.000     0.000   154.982     0.000     0.000     0.000     0.000     0.000     0.030     0.000     0.000     0.000     0.000     0.000     0.000     0.030     0.000     0.000 .00000E+00 0.000E+00 0.000E+00 0.000E+00
BIGSUB   7        0    9.14660E+04     0.000     0.000   155.018     0.000     0.000     0.000     0.000     0.000     0.007     0.000     0.000     0.000     0.000     0.000     0.000     0.007     0.000     0.000 .00000E+00 0.000E+00 0.000E+00 0.000E+00
BIGSUB   8        0    9.34940E+04     0.000     0.000   155.749     0.000     0.000     0.000     0.000     0.000     0.014     0.000     0.000     0.000     0.000     0.000     0.000     0.014     0.000     0.000 .00000E+00 0.000E+00 0.000E+00 0.000E+00
BIGSUB   9        0    9.47420E+04     0.000     0.000   151.075     0.000     0.000     0.000     0.000     0.000     0.007     0.000     0.000     0.000     0.000     0.000     0.000     0.007     0.000     0.000 .00000E+00 0.000E+00 0.000E+00 0.000E+00
BIGSUB  10        0    9.13380E+04     0.000     0.000   151.541     0.000     0.000     0.000     0.000     0.000     0.015     0.000     0.000     0.000     0.000     0.000     0.000     0.015     0.000     0.000 .00000E+00 0.000E+00 0.000E+00 0.000E+00
BIGSUB  11        0    9.24060E+04     1.380     0.000   121.829     1.380     0.000     0.000     0.000     0.000     0.013     0.000     0.000     0.000     0.000     0.000     0.000     0.013     0.000     0.000 .00000E+00 0.000E+00 0.000E+00 0.000E+00
BIGSUB  12        0    9.19770E+04     0.000     0.000   137.300     0.000     0.000     0.000     0.000     0.000     0.011     0.000     0.000     0.000     0.000     0.000     0.000     0.011     0.000     0.000 .00000E+00 0.000E+00 0.000E+00 0.000E+00
BIGSUB  13        0    9.16410E+04     1.380     0.000   122.115     1.380     0.000     0.000     0.000     0.000     0.009     0.000     0.000     0.000     0.000     0.000     0.000     0.009     0.000     0.000 .00000E+00 0.000E+00 0.000E+00 0.000E+00
BIGSUB  14        0    9.52740E+04     0.000     0.000   137.661     0.000     0.000     0.000     0.000     0.000     0.021     0.000     0.000     0.000     0.000     0.000     0.000     0.021     0.000     0.000 .00000E+00 0.000E+00 0.000E+00 0.000E+00
BIGSUB  15        0    9.42200E+03     1.380     0.000   122.381     1.380     0.000     0.000     0.000     0.000     0.009     0.000     0.000     0.000     0.000     0.000     0.000     0.008     0.000     0.000 .00000E+00 0.000E+00 0.000E+00 0.000E+00
BIGSUB  16        0    9.13850E+04     1.380     0.000   122.608     1.380     0.000     0.000     0.000     0.000     0.009     0.000     0.000     0.000     0.000     0.000     0.000     0.009     0.000     0.000 .00000E+00 0.000E+00 0.000E+00 0.000E+00
BIGSUB  17        0    9.17180E+04     0.000     0.000   138.230     0.000     0.000     0.000     0.000     0.131     0.139     0.000     0.000     0.000     0.000     0.000     0.000     0.008     0.000     0.005 .00000E+00 0.000E+00 0.000E+00 0.000E+00
BIGSUB  18        0    9.26090E+04     0.000     0.000   138.047     0.000     0.000     0.000     0.000     0.000     0.017     0.000     0.000     0.000     0.000     0.000     0.000     0.017     0.000     0.000 .00000E+00 0.000E+00 0.000E+00 0.000E+00
BIGSUB  19        0    9.25380E+04     0.000     0.000   138.599     0.000     0.000     0.000     0.000     0.000     0.009     0.000     0.000     0.000     0.000     0.000     0.000     0.009     0.000     0.000 .00000E+00 0.000E+00 0.000E+00 0.000E+00
BIGSUB  20        0    9.19820E+04     0.000     0.000   138.769     0.000     0.000     0.000     0.000     0.000     0.011     0.000     0.000     0.000     0.000     0.000     0.000     0.011     0.000     0.000 .00000E+00 0.000E+00 0.000E+00 0.000E+00
BIGSUB   1        0   10.12360E+04    17.900     0.000    88.216     9.183     8.694     0.000     0.000     0.000     0.014     0.000     0.000     0.000     0.000     0.000     0.000     0.014     0.000     0.000 .00000E+00 0.000E+00 0.000E+00 0.000E+00
BIGSUB   2        0   10.37400E+03    17.900     0.000    88.421     9.190     8.606     0.000     0.000     0.000     0.073     0.000     0.000     0.000     0.000     0.000     0.000     0.073     0.000     0.000 .00000E+00 0.000E+00 0.000E+00 0.000E+00
BIGSUB   3        0   10.14590E+04    17.900     0.000    88.212     9.208     8.660     0.000     0.000     0.000     0.029     0.000     0.000     0.000     0.000     0.000     0.000     0.029     0.000     0.000 .00000E+00 0.000E+00 0.000E+00 0.000E+00
BIGSUB   4        0   10.91800E+03    17.900     0.000    88.247     9.195     8.682     0.000     0.000     0.000     0.015     0.000     0.000     0.000     0.000     0.000     0.000     0.015     0.000     0.000 .00000E+00 0.000E+00 0.000E+00 0.000E+00
BIGSUB   5        0   10.37770E+04    17.900     0.000    88.580     9.235     8.644     0.000     0.000     0.000     0.017     0.000     0.000     0.000     0.000     0.000     0.000     0.017     0.000     0.000 .00000E+00 0.000E+00 0.000E+00 0.000E+00
BIGSUB   6        0   10.18250E+04    17.900     0.000    88.976     9.328     8.544     0.000     0.000     0.000     0.028     0.000     0.000     0.000     0.000     0.000     0.000     0.028     0.000     0.000 .00000E+00 0.000E+00 0.000E+00 0.000E+00
BIGSUB   7        0   10.14660E+04    17.900     0.000    89.013     9.124     8.772     0.000     0.000     0.000     0.007     0.000     0.000     0.000     0.000     0.000     0.000     0.007     0.000     0.000 .00000E+00 0.000E+00 0.000E+00 0.000E+00
BIGSUB   8        0   10.34940E+04    17.900     0.000    89.777     9.188     8.688     0.000     0.000     0.000     0.017     0.000     0.000     0.000     0.000     0.000     0.000     0.017     0.000     0.000 .00000E+00 0.000E+00 0.000E+00 0.000E+00
BIGSUB   9        0   10.47420E+04    20.400     0.000    81.612    10.525     9.852     0.000     0.000     0.000     0.008     0.000     0.000     0.000     0.000     0.000     0.000     0.008     0.000     0.000 .00000E+00 0.000E+00 0.000E+00 0.000E+00
BIGSUB  10        0   10.13380E+04    20.400     0.000    82.069    10.220    10.166     0.000     0.000     0.000     0.014     0.000     0.000     0.000     0.000     0.000     0.000     0.014     0.000     0.000 .00000E+00 0.000E+00 0.000E+00 0.000E+00
BIGSUB  11        0   10.24060E+04    19.432     0.000    65.404    13.038     6.382     0.000     0.000     0.000     0.013     0.000     0.000     0.000     0.000     0.000     0.000     0.013     0.000     0.000 .00000E+00 0.000E+00 0.000E+00 0.000E+00
BIGSUB  12        0   10.19770E+04    18.400     0.000    73.005     6.586    11.806     0.000     0.000     0.000     0.010     0.000     0.000     0.000     0.000     0.000     0.000     0.010     0.000     0.000 .00000E+00 0.000E+00 0.000E+00 0.000E+00
BIGSUB  13        0   10.16410E+04    19.432     0.000    65.694    12.711     6.716     0.000     0.000     0.000     0.009     0.000     0.000     0.000     0.000     0.000     0.000     0.009     0.000     0.000 .00000E+00 0.000E+00 0.000E+00 0.000E+00
BIGSUB  14        0   10.52740E+04    18.400     0.000    73.547     6.680    11.706     0.000     0.000     0.000     0.019     0.000     0.000     0.000     0.000     0.000     0.000     0.019     0.000     0.000 .00000E+00 0.000E+00 0.000E+00 0.000E+00
BIGSUB  15        0   10.42200E+03    19.432     0.000    65.964    12.697     6.729     0.000     0.000     0.000     0.008     0.000     0.000     0.000     0.000     0.000     0.000     0.008     0.000     0.000 .00000E+00 0.000E+00 0.000E+00 0.000E+00
BIGSUB  16        0   10.13850E+04    19.432     0.000    66.195    13.125     6.299     0.000     0.000     0.000     0.009     0.000     0.000     0.000     0.000     0.000     0.000     0.009     0.000     0.000 .00000E+00 0.000E+00 0.000E+00 0.000E+00
BIGSUB  17        0   10.17180E+04    18.400     0.000    74.101     6.869    11.527     0.000     0.000     0.907     0.915     0.000     0.000     0.000     0.000     0.000     0.000     0.008     0.000     0.030 .00000E+00 0.000E+00 0.000E+00 0.000E+00
BIGSUB  18        0   10.26090E+04    18.400     0.000    73.922     6.639    11.750     0.000     0.000     0.000     0.015     0.000     0.000     0.000     0.000     0.000     0.000     0.015     0.000     0.000 .00000E+00 0.000E+00 0.000E+00 0.000E+00
BIGSUB  19        0   10.25380E+04    18.400     0.000    74.462     6.761    11.618     0.000     0.000     0.276     0.285     0.000     0.000     0.000     0.000     0.000     0.000     0.009     0.000     0.005 .00000E+00 0.000E+00 0.000E+00 0.000E+00
BIGSUB  20        0   10.19820E+04    18.400     0.000    74.629     6.784    11.592     0.000     0.000     0.388     0.399     0.000     0.000     0.000     0.000     0.000     0.000     0.011     0.000     0.008 .00000E+00 0.000E+00 0.000E+00 0.000E+00
BIGSUB   1        0   11.12360E+04    13.000     0.000    54.578     7.493    14.180     0.000     0.000     0.000     0.020     0.000     0.000     0.000     0.000     0.000     0.000     0.020     0.000     0.000 .00000E+00 0.000E+00 0.000E+00 0.000E+00
BIGSUB   2        0   11.37400E+03    13.000     0.000    54.774     7.412    14.099     0.000     0.000     0.000     0.108     0.000     0.000     0.000     0.000     0.000     0.000     0.108     0.000     0.000 .00000E+00 0.000E+00 0.000E+00 0.000E+00
BIGSUB   3        0   11.14590E+04    13.000     0.000    54.573     7.300    14.329     0.000     0.000     0.000     0.034     0.000     0.000     0.000     0.000     0.000     0.000     0.034     0.000     0.000 .00000E+00 0.000E+00 0.000E+00 0.000E+00
BIGSUB   4        0   11.91800E+03    13.000     0.000    54.607     7.420    14.242     0.000     0.000     0.000     0.021     0.000     0.000     0.000     0.000     0.000     0.000     0.021     0.000     0.000 .00000E+00 0.000E+00 0.000E+00 0.000E+00
BIGSUB   5        0   11.37770E+04    13.000     0.000    54.927     7.327    14.297     0.000     0.000     0.000     0.020     0.000     0.000     0.000     0.000     0.000     0.000     0.020     0.000     0.000 .00000E+00 0.000E+00 0.000E+00 0.000E+00
BIGSUB   6        0   11.18250E+04    13.000     0.000    55.309     7.267    14.250     0.000     0.000     0.000     0.028     0.000     0.000     0.000     0.000     0.000     0.000     0.028     0.000     0.000 .00000E+00 0.000E+00 0.000E+00 0.000E+00
BIGSUB   7        0   11.14660E+04    13.000     0.000    55.344     8.590    13.179     0.000     0.000     0.000     0.007     0.000     0.000     0.000     0.000     0.000     0.000     0.007     0.000     0.000 .00000E+00 0.000E+00 0.000E+00 0.000E+00
BIGSUB   8        0   11.34940E+04    13.000     0.000    56.082     8.356    13.310     0.000     0.000     0.000     0.023     0.000     0.000     0.000     0.000     0.000     0.000     0.023     0.000     0.000 .00000E+00 0.000E+00 0.000E+00 0.000E+00
BIGSUB   9        0   11.47420E+04     0.800     0.000    51.550    10.653     0.000     0.000     0.000     0.000     0.013     0.000     0.000     0.000     0.000     0.000     0.000     0.013     0.000     0.000 .00000E+00 0.000E+00 0.000E+00 0.000E+00
BIGSUB  10        0   11.13380E+04     0.800     0.000    52.001    10.966     0.000     0.000     0.000     0.000     0.013     0.000     0.000     0.000     0.000     0.000     0.000     0.013     0.000     0.000 .00000E+00 0.000E+00 0.000E+00 0.000E+00
BIGSUB  11        0   11.24060E+04   110.416    10.535    36.286    29.815    86.652     0.000     0.135     0.000     0.158     0.001     0.002     0.000     0.000     0.000     0.001     0.023     0.000     0.000 .00000E+00 0.000E+00 0.000E+00 0.000E+00
BIGSUB  12        0   11.19770E+04     6.000     0.000    44.945    15.674     2.129     0.000     0.000     0.000     0.010     0.000     0.000     0.000     0.000     0.000     0.000     0.010     0.000     0.000 .00000E+00 0.000E+00 0.000E+00 0.000E+00
BIGSUB  13        0   11.16410E+04   110.416    10.535    36.535    29.493    87.191     0.000     0.203     0.000     0.215     0.001     0.003     0.000     0.001     0.000     0.001     0.012     0.000     0.000 .00000E+00 0.000E+00 0.000E+00 0.000E+00
BIGSUB  14        0   11.52740E+04     6.000     0.000    45.466    14.981     2.721     0.000     0.000     0.108     0.125     0.000     0.000     0.000     0.000     0.000     0.000     0.018     0.000     0.003 .00000E+00 0.000E+00 0.000E+00 0.000E+00
BIGSUB  15        0   11.42200E+03   110.416    10.535    36.767    29.791    87.078     0.000     0.134     0.000     0.147     0.001     0.001     0.000     0.000     0.000     0.000     0.013     0.000     0.000 .00000E+00 0.000E+00 0.000E+00 0.000E+00
BIGSUB  16        0   11.13850E+04   110.416    10.535    36.967    30.630    86.007     0.000     0.000     0.000     0.015     0.000     0.000     0.000     0.000     0.000     0.000     0.015     0.000     0.000 .00000E+00 0.000E+00 0.000E+00 0.000E+00
BIGSUB  17        0   11.17180E+04     6.000     0.000    46.001    13.686     3.840     0.000     0.000     0.924     0.932     0.000     0.000     0.000     0.000     0.000     0.000     0.007     0.000     0.026 .00000E+00 0.000E+00 0.000E+00 0.000E+00
BIGSUB  18        0   11.26090E+04     6.000     0.000    45.828    15.733     2.014     0.000     0.000     0.000     0.014     0.000     0.000     0.000     0.000     0.000     0.000     0.014     0.000     0.000 .00000E+00 0.000E+00 0.000E+00 0.000E+00
BIGSUB  19        0   11.25380E+04     6.000     0.000    46.349    15.153     2.458     0.000     0.000     0.382     0.398     0.000     0.000     0.000     0.000     0.000     0.000     0.016     0.000     0.006 .00000E+00 0.000E+00 0.000E+00 0.000E+00
BIGSUB  20        0   11.19820E+04     6.000     0.000    46.511    14.827     2.757     0.000     0.000     0.519     0.539     0.000     0.000     0.000     0.000     0.000     0.000     0.020     0.000     0.009 .00000E+00 0.000E+00 0.000E+00 0.000E+00
BIGSUB   1        0   12.12360E+04    39.000     0.000    27.257     7.542    34.591     0.000     0.000     0.000     0.029     0.000     0.000     0.000     0.000     0.000     0.000     0.029     0.000     0.000 .00000E+00 0.000E+00 0.000E+00 0.000E+00
BIGSUB   2        0   12.37400E+03    39.000     0.000    27.379     7.375    34.508     0.000     0.000     0.000     0.162     0.000     0.000     0.000     0.000     0.000     0.000     0.162     0.000     0.000 .00000E+00 0.000E+00 0.000E+00 0.000E+00
BIGSUB   3        0   12.14590E+04    39.000     0.000    27.255     7.113    35.148     0.000     0.000     0.000     0.042     0.000     0.000     0.000     0.000     0.000     0.000     0.042     0.000     0.000 .00000E+00 0.000E+00 0.000E+00 0.000E+00
BIGSUB   4        0   12.91800E+03    39.000     0.000    27.276     7.375    34.820     0.000     0.000     0.000     0.029     0.000     0.000     0.000     0.000     0.000     0.000     0.029     0.000     0.000 .00000E+00 0.000E+00 0.000E+00 0.000E+00
BIGSUB   5        0   12.37770E+04    39.000     0.000    27.473     7.143    35.110     0.000     0.000     0.000     0.026     0.000     0.000     0.000     0.000     0.000     0.000     0.026     0.000     0.000 .00000E+00 0.000E+00 0.000E+00 0.000E+00
BIGSUB   6        0   12.18250E+04    39.000     0.000    27.709     6.931    35.258     0.000     0.000     0.000     0.032     0.000     0.000     0.000     0.000     0.000     0.000     0.032     0.000     0.000 .00000E+00 0.000E+00 0.000E+00 0.000E+00
BIGSUB   7        0   12.14660E+04    39.000     0.000    27.731     8.840    32.329     0.000     0.000     0.000     0.007     0.000     0.000     0.000     0.000     0.000     0.000     0.007     0.000     0.000 .00000E+00 0.000E+00 0.000E+00 0.000E+00
BIGSUB   8        0   12.34940E+04    39.000     0.000    28.187     8.635    32.622     0.000     0.000     0.000     0.031     0.000     0.000     0.000     0.000     0.000     0.000     0.031     0.000     0.000 .00000E+00 0.000E+00 0.000E+00 0.000E+00
BIGSUB   9        0   12.47420E+04    15.300     0.100    28.129     3.239     1.658     0.000     0.000     0.000     0.009     0.000     0.000     0.000     0.000     0.000     0.000     0.009     0.000     0.000 .00000E+00 0.000E+00 0.000E+00 0.000E+00
BIGSUB  10        0   12.13380E+04    15.300     0.100    28.431     3.182     1.716     0.000     0.000     0.000     0.012     0.000     0.000     0.000     0.000     0.000     0.000     0.012     0.000     0.000 .00000E+00 0.000E+00 0.000E+00 0.000E+00
BIGSUB  11        0   12.24060E+04    22.312    16.670    21.931    17.048    88.352     0.000     3.385     0.000     3.412     0.048     0.116     0.014     0.017     0.001     0.025     0.027     0.000     0.000 .00000E+00 0.000E+00 0.000E+00 0.000E+00
BIGSUB  12        0   12.19770E+04    20.900     1.500    24.144     4.031     0.999     0.000     0.000     0.000     0.009     0.000     0.000     0.000     0.000     0.000     0.000     0.009     0.000     0.000 .00000E+00 0.000E+00 0.000E+00 0.000E+00
BIGSUB  13        0   12.16410E+04    22.312    16.667    22.113    16.635    87.080     0.000     5.569     0.000     5.581     0.057     0.157     0.019     0.026     0.001     0.034     0.013     0.000     0.000 .00000E+00 0.000E+00 0.000E+00 0.000E+00
BIGSUB  14        0   12.52740E+04    20.900     1.500    24.488     4.826     0.795     0.000     0.000     0.277     0.292     0.000     0.000     0.000     0.000     0.000     0.000     0.016     0.000     0.006 .00000E+00 0.000E+00 0.000E+00 0.000E+00
BIGSUB  15        0   12.42200E+03    22.312    16.664    22.284    16.947    87.865     0.000     4.453     0.000     4.469     0.040     0.092     0.011     0.021     0.001     0.020     0.015     0.000     0.000 .00000E+00 0.000E+00 0.000E+00 0.000E+00
BIGSUB  16        0   12.13850E+04    22.312    16.662    22.431    17.737    89.244     0.000     1.179     0.000     1.197     0.006     0.017     0.002     0.006     0.000     0.004     0.018     0.000     0.000 .00000E+00 0.000E+00 0.000E+00 0.000E+00
BIGSUB  17        0   12.17180E+04    20.900     1.500    24.842     6.351     0.389     0.000     0.000     1.024     1.031     0.000     0.000     0.000     0.000     0.000     0.000     0.007     0.000     0.024 .00000E+00 0.000E+00 0.000E+00 0.000E+00
BIGSUB  18        0   12.26090E+04    20.900     1.500    24.728     3.935     0.979     0.000     0.000     0.000     0.013     0.000     0.000     0.000     0.000     0.000     0.000     0.013     0.000     0.000 .00000E+00 0.000E+00 0.000E+00 0.000E+00
BIGSUB  19        0   12.25380E+04    20.900     1.500    25.073     4.592     0.766     0.000     0.000     0.439     0.450     0.000     0.000     0.000     0.000     0.000     0.000     0.011     0.000     0.006 .00000E+00 0.000E+00 0.000E+00 0.000E+00
BIGSUB  20        0   12.19820E+04    20.900     1.500    25.180     4.964     0.693     0.000     0.000     0.596     0.610     0.000     0.000     0.000     0.000     0.000     0.000     0.013     0.000     0.008 .00000E+00 0.000E+00 0.000E+00 0.000E+00
BIGSUB   1        0 1990.12360E+04   289.400    61.825  1311.747   268.214    34.591     2.227     7.302     0.000     7.786     1.669     2.130     0.252     0.026     0.002     0.517     0.484     0.003     0.000 .00000E+00 0.000E+00 0.000E+00 0.000E+00
BIGSUB   2        0 1990.37400E+03   289.400    61.823  1312.892   267.895    34.508     0.677     7.470     0.000     9.665     4.711     3.687     0.435     0.024     0.001     0.921     2.195     0.015     0.000 .00000E+00 0.000E+00 0.000E+00 0.000E+00
BIGSUB   3        0 1990.14590E+04   289.400    61.825  1311.723   268.876    35.148     1.091     8.079     0.000     8.781     2.836     2.842     0.335     0.023     0.002     0.746     0.702     0.005     0.000 .00000E+00 0.000E+00 0.000E+00 0.000E+00
BIGSUB   4        0 1990.91800E+03   289.400    61.825  1311.922   268.568    34.820     1.765     7.728     0.000     8.209     2.290     2.370     0.280     0.025     0.002     0.587     0.481     0.003     0.000 .00000E+00 0.000E+00 0.000E+00 0.000E+00
BIGSUB   5        0 1990.37770E+04   289.400    61.820  1313.779   267.876    35.110     1.063     8.909     0.000     9.368     1.387     2.773     0.329     0.026     0.002     0.619     0.459     0.003     0.000 .00000E+00 0.000E+00 0.000E+00 0.000E+00
BIGSUB   6        0 1990.18250E+04   289.400    61.815  1315.986   265.453    35.258     0.000    11.586     0.000    12.224     2.818     3.950     0.474     0.027     0.002     0.893     0.637     0.005     0.000 .00000E+00 0.000E+00 0.000E+00 0.000E+00
BIGSUB   7        0 1990.14660E+04   289.400    61.814  1316.192   247.243    32.329     2.583    27.086     0.000    27.187     2.518     5.957     0.711     0.096     0.005     1.318     0.101     0.002     0.000 .00000E+00 0.000E+00 0.000E+00 0.000E+00
BIGSUB   8        0 1990.34940E+04   289.400    61.804  1320.412   251.542    32.622     2.474    23.460     0.000    23.980     9.028     9.969     1.172     0.076     0.004     2.117     0.520     0.004     0.000 .00000E+00 0.000E+00 0.000E+00 0.000E+00
BIGSUB   9        0 1990.47420E+04   222.400    50.186  1239.538   225.910     1.658     0.000     0.394     0.000     0.663     0.086     0.149     0.017     0.005     0.000     0.031     0.270     0.005     0.000 .00000E+00 0.000E+00 0.000E+00 0.000E+00
BIGSUB  10        0 1990.13380E+04   222.400    50.176  1242.149   220.008     1.716     0.000     4.402     0.000     4.598     1.429     1.956     0.232     0.032     0.001     0.435     0.195     0.004     0.000 .00000E+00 0.000E+00 0.000E+00 0.000E+00
BIGSUB  11        0 1990.24060E+04   329.184    90.047  1078.785   253.987    88.352     0.000    10.861     1.710    12.790     0.523     0.952     0.110     0.056     0.002     0.203     0.219     0.003     0.060 .00000E+00 0.000E+00 0.000E+00 0.000E+00
BIGSUB  12        0 1990.19770E+04   292.300   105.788  1132.693   297.375     0.999     0.000    23.353     0.000    23.515     0.735     2.934     0.337     0.097     0.006     0.560     0.161     0.002     0.000 .00000E+00 0.000E+00 0.000E+00 0.000E+00
BIGSUB  13        0 1990.16410E+04   329.184    90.042  1080.497   249.610    87.080     0.000    16.224     4.256    20.616     0.614     1.357     0.158     0.084     0.003     0.290     0.136     0.003     0.142 .00000E+00 0.000E+00 0.000E+00 0.000E+00
BIGSUB  14        0 1990.52740E+04   292.300   105.763  1135.523   279.567     0.795    15.404    23.254     4.689    28.275     1.095     3.582     0.414     0.102     0.005     0.696     0.332     0.006     0.244 .00000E+00 0.000E+00 0.000E+00 0.000E+00
BIGSUB  15        0 1990.42200E+03   329.184    90.037  1082.085   252.656    87.865     0.000    12.795     3.400    16.331     0.379     0.764     0.089     0.062     0.002     0.164     0.136     0.002     0.108 .00000E+00 0.000E+00 0.000E+00 0.000E+00
BIGSUB  16        0 1990.13850E+04   329.184    90.032  1083.443   258.990    89.244     0.000     5.061     0.267     5.478     0.051     0.142     0.016     0.023     0.001     0.034     0.149     0.002     0.006 .00000E+00 0.000E+00 0.000E+00 0.000E+00
BIGSUB  17        0 1990.17180E+04   292.300   105.737  1138.596   225.069     0.389    43.668    45.592    21.562    67.263     1.324     4.722     0.549     0.197     0.010     1.016     0.109     0.002     1.167 .00000E+00 0.000E+00 0.000E+00 0.000E+00
BIGSUB  18        0 1990.26090E+04   292.300   105.745  1137.606   306.536     0.979     3.384    10.168     0.000    10.406     0.108     0.451     0.051     0.036     0.003     0.113     0.238     0.004     0.000 .00000E+00 0.000E+00 0.000E+00 0.000E+00
BIGSUB  19        0 1990.25380E+04   292.300   105.720  1140.582   277.707     0.766    20.916    20.765     9.144    30.389     1.710     3.440     0.391     0.091     0.004     0.699     0.481     0.007     0.282 .00000E+00 0.000E+00 0.000E+00 0.000E+00
BIGSUB  20        0 1990.19820E+04   292.300   105.712  1141.498   267.172     0.693    28.462    23.074    12.466    36.108     1.781     3.945     0.450     0.105     0.005     0.800     0.568     0.009     0.388 .00000E+00 0.000E+00 0.000E+00 0.000E+00
BIGSUB   1        0    1.12360E+04    19.100    26.211    17.848     8.535    56.125     0.000     0.000     0.000     0.031     0.000     0.000     0.000     0.000     0.000     0.000     0.031     0.000     0.000 .00000E+00 0.000E+00 0.000E+00 0.000E+00
BIGSUB   2        0    1.37400E+03    19.100    26.207    17.919     8.483    55.978     0.000     0.000     0.000     0.150     0.000     0.000     0.000     0.000     0.000     0.000     0.150     0.001     0.000 .00000E+00 0.000E+00 0.000E+00 0.000E+00
BIGSUB   3        0    1.14590E+04    19.100    26.211    17.846     8.168    57.047     0.000     0.000     0.000     0.043     0.000     0.000     0.000     0.000     0.000     0.000     0.043     0.000     0.000 .00000E+00 0.000E+00 0.000E+00 0.000E+00
BIGSUB   4        0    1.91800E+03    19.100    26.210    17.859     8.393    56.498     0.000     0.000     0.000     0.031     0.000     0.000     0.000     0.000     0.000     0.000     0.031     0.000     0.000 .00000E+00 0.000E+00 0.000E+00 0.000E+00
BIGSUB   5        0    1.37770E+04    19.100    26.204    17.975     8.321    56.868     0.000     0.000     0.000     0.027     0.000     0.000     0.000     0.000     0.000     0.000     0.027     0.000     0.000 .00000E+00 0.000E+00 0.000E+00 0.000E+00
BIGSUB   6        0    1.18250E+04    19.100    26.198    18.114     8.173    57.167     0.000     0.000     0.000     0.032     0.000     0.000     0.000     0.000     0.000     0.000     0.032     0.000     0.000 .00000E+00 0.000E+00 0.000E+00 0.000E+00
BIGSUB   7        0    1.14660E+04    19.100    26.197    18.127     9.159    53.260     0.000     0.000     0.000     0.007     0.000     0.000     0.000     0.000     0.000     0.000     0.007     0.000     0.000 .00000E+00 0.000E+00 0.000E+00 0.000E+00
BIGSUB   8        0    1.34940E+04    19.100    26.184    18.396     9.218    53.091     0.000     0.197     0.000     0.231     0.048     0.058     0.007     0.002     0.000     0.013     0.034     0.000     0.000 .00000E+00 0.000E+00 0.000E+00 0.000E+00
BIGSUB   9        0    1.47420E+04    34.700    18.450    19.588     3.056    18.088     0.000     0.000     0.000     0.009     0.000     0.000     0.000     0.000     0.000     0.000     0.009     0.000     0.000 .00000E+00 0.000E+00 0.000E+00 0.000E+00
BIGSUB  10        0    1.13380E+04    34.700    18.450    19.780     3.014    18.203     0.000     0.000     0.000     0.011     0.000     0.000     0.000     0.000     0.000     0.000     0.011     0.000     0.000 .00000E+00 0.000E+00 0.000E+00 0.000E+00
BIGSUB  11        0    1.24060E+04    29.257     2.915    19.324     7.364    83.775     0.000     0.097     0.000     0.120     0.003     0.007     0.001     0.005     0.000     0.002     0.023     0.000     0.000 .00000E+00 0.000E+00 0.000E+00 0.000E+00
BIGSUB  12        0    1.19770E+04    38.200     3.825    14.975     3.164     1.660     0.000     0.000     0.000     0.008     0.000     0.000     0.000     0.000     0.000     0.000     0.008     0.000     0.000 .00000E+00 0.000E+00 0.000E+00 0.000E+00
BIGSUB  13        0    1.16410E+04    29.257     2.915    19.471     6.621    83.127     0.000     0.176     0.000     0.187     0.002     0.007     0.001     0.009     0.000     0.001     0.012     0.000     0.000 .00000E+00 0.000E+00 0.000E+00 0.000E+00
BIGSUB  14        0    1.52740E+04    38.200     3.825    15.072     2.630     1.989     0.000     0.000     0.255     0.268     0.000     0.000     0.000     0.000     0.000     0.000     0.013     0.000     0.004 .00000E+00 0.000E+00 0.000E+00 0.000E+00
BIGSUB  15        0    1.42200E+03    29.257     2.915    19.608     7.046    83.584     0.000     0.104     0.000     0.117     0.002     0.004     0.001     0.005     0.000     0.001     0.013     0.000     0.000 .00000E+00 0.000E+00 0.000E+00 0.000E+00
BIGSUB  16        0    1.13850E+04    29.257     2.915    19.726     8.100    84.059     0.000     0.000     0.000     0.016     0.000     0.000     0.000     0.000     0.000     0.000     0.016     0.000     0.000 .00000E+00 0.000E+00 0.000E+00 0.000E+00
BIGSUB  17        0    1.17180E+04    38.200     3.825    15.271     2.393     1.821     0.000     0.000     0.894     0.900     0.000     0.000     0.000     0.000     0.000     0.000     0.006     0.000     0.018 .00000E+00 0.000E+00 0.000E+00 0.000E+00
BIGSUB  18        0    1.26090E+04    38.200     3.825    15.207     2.696     2.108     0.000     0.000     0.000     0.011     0.000     0.000     0.000     0.000     0.000     0.000     0.011     0.000     0.000 .00000E+00 0.000E+00 0.000E+00 0.000E+00
BIGSUB  19        0    1.25380E+04    38.200     3.825    15.401     2.592     1.997     0.000     0.000     0.387     0.395     0.000     0.000     0.000     0.000     0.000     0.000     0.008     0.000     0.005 .00000E+00 0.000E+00 0.000E+00 0.000E+00
BIGSUB  20        0    1.19820E+04    38.200     3.825    15.461     2.556     1.959     0.000     0.000     0.526     0.536     0.000     0.000     0.000     0.000     0.000     0.000     0.009     0.000     0.006 .00000E+00 0.000E+00 0.000E+00 0.000E+00
BIGSUB   1        0    2.12360E+04    41.900    22.300    31.255    19.050    78.910     0.000     0.000     0.000     0.028     0.000     0.000     0.000     0.000     0.000     0.000     0.028     0.000     0.000 .00000E+00 0.000E+00 0.000E+00 0.000E+00
BIGSUB   2        0    2.37400E+03    41.900    22.300    31.343    19.239    78.330     0.000     0.000     0.000     0.128     0.000     0.000     0.000     0.000     0.000     0.000     0.128     0.002     0.000 .00000E+00 0.000E+00 0.000E+00 0.000E+00
BIGSUB   3        0    2.14590E+04    41.900    22.300    31.253    18.715    80.145     0.000     0.000     0.000     0.038     0.000     0.000     0.000     0.000     0.000     0.000     0.038     0.000     0.000 .00000E+00 0.000E+00 0.000E+00 0.000E+00
BIGSUB   4        0    2.91800E+03    41.900    22.300    31.268    18.921    79.413     0.000     0.000     0.000     0.028     0.000     0.000     0.000     0.000     0.000     0.000     0.028     0.000     0.000 .00000E+00 0.000E+00 0.000E+00 0.000E+00
BIGSUB   5        0    2.37770E+04    41.900    22.300    31.412    19.190    79.523     0.000     0.000     0.000     0.024     0.000     0.000     0.000     0.000     0.000     0.000     0.024     0.000     0.000 .00000E+00 0.000E+00 0.000E+00 0.000E+00
BIGSUB   6        0    2.18250E+04    41.900    22.300    31.584    19.060    79.942     0.000     0.000     0.000     0.027     0.000     0.000     0.000     0.000     0.000     0.000     0.027     0.000     0.000 .00000E+00 0.000E+00 0.000E+00 0.000E+00
BIGSUB   7        0    2.14660E+04    41.900    22.300    31.601    18.399    76.750     0.000     0.000     0.000     0.006     0.000     0.000     0.000     0.000     0.000     0.000     0.006     0.000     0.000 .00000E+00 0.000E+00 0.000E+00 0.000E+00
BIGSUB   8        0    2.34940E+04    41.900    22.300    31.731    19.149    72.694     0.000     2.681     0.000     2.711     0.473     0.703     0.083     0.012     0.000     0.152     0.030     0.000     0.000 .00000E+00 0.000E+00 0.000E+00 0.000E+00
BIGSUB   9        0    2.47420E+04    36.500    31.497    24.351    14.891    61.203     0.000     2.768     0.000     2.779     0.099     0.230     0.025     0.010     0.001     0.060     0.011     0.000     0.000 .00000E+00 0.000E+00 0.000E+00 0.000E+00
BIGSUB  10        0    2.13380E+04    36.500    31.484    24.516    16.534    52.426     0.000    10.742     0.000    10.752     1.368     2.502     0.282     0.042     0.002     0.511     0.010     0.000     0.000 .00000E+00 0.000E+00 0.000E+00 0.000E+00
BIGSUB  11        0    2.24060E+04    46.448    51.743    23.316    14.892   106.141     0.000    34.549     0.000    34.567     1.550     3.318     0.389     0.109     0.006     0.719     0.018     0.000     0.000 .00000E+00 0.000E+00 0.000E+00 0.000E+00
BIGSUB  12        0    2.19770E+04    56.500    68.625    17.346     6.535    93.079     0.000     0.011     0.000     0.017     0.000     0.000     0.000     0.000     0.000     0.000     0.007     0.000     0.000 .00000E+00 0.000E+00 0.000E+00 0.000E+00
BIGSUB  13        0    2.16410E+04    46.448    51.740    23.443    15.275    95.760     0.000    43.342     0.000    43.352     1.617     3.775     0.448     0.157     0.008     0.815     0.010     0.000     0.000 .00000E+00 0.000E+00 0.000E+00 0.000E+00
BIGSUB  14        0    2.52740E+04    56.500    68.625    17.503     5.990    92.888     0.000     0.765     0.135     0.912     0.045     0.113     0.013     0.002     0.000     0.021     0.011     0.000     0.002 .00000E+00 0.000E+00 0.000E+00 0.000E+00
BIGSUB  15        0    2.42200E+03    46.448    51.736    23.561    15.235   101.141     0.000    39.023     0.000    39.034     1.166     2.546     0.301     0.128     0.007     0.552     0.011     0.000     0.000 .00000E+00 0.000E+00 0.000E+00 0.000E+00
BIGSUB  16        0    2.13850E+04    46.448    51.733    23.662    14.810   116.627     0.000    24.846     0.000    24.858     0.527     1.376     0.160     0.056     0.005     0.336     0.012     0.000     0.000 .00000E+00 0.000E+00 0.000E+00 0.000E+00
BIGSUB  17        0    2.17180E+04    56.500    68.625    17.664     6.316    88.567     0.000     3.410     0.536     3.951     0.113     0.299     0.035     0.008     0.001     0.065     0.006     0.000     0.009 .00000E+00 0.000E+00 0.000E+00 0.000E+00
BIGSUB  18        0    2.26090E+04    56.500    68.625    17.612     5.908    94.373     0.000     0.000     0.000     0.009     0.000     0.000     0.000     0.000     0.000     0.000     0.009     0.000     0.000 .00000E+00 0.000E+00 0.000E+00 0.000E+00
BIGSUB  19        0    2.25380E+04    56.500    68.625    17.769     6.054    92.859     0.000     1.115     0.227     1.355     0.122     0.204     0.024     0.003     0.000     0.041     0.013     0.000     0.002 .00000E+00 0.000E+00 0.000E+00 0.000E+00
BIGSUB  20        0    2.19820E+04    56.500    68.625    17.817     6.105    92.329     0.000     1.444     0.309     1.769     0.121     0.230     0.027     0.003     0.000     0.046     0.016     0.000     0.003 .00000E+00 0.000E+00 0.000E+00 0.000E+00
BIGSUB   1        0    3.12360E+04    87.200    10.510    58.568    39.587   116.992     7.767     1.244     0.000     1.345     0.205     0.332     0.039     0.004     0.000     0.068     0.101     0.001     0.000 .00000E+00 0.000E+00 0.000E+00 0.000E+00
BIGSUB   2        0    3.37400E+03    87.200    10.509    58.665    39.785   118.000     5.431     1.063     0.000     1.831     0.482     0.449     0.053     0.003     0.000     0.092     0.768     0.008     0.000 .00000E+00 0.000E+00 0.000E+00 0.000E+00
BIGSUB   3        0    3.14590E+04    87.200    10.510    58.566    39.440   122.731     4.023     0.680     0.000     0.794     0.294     0.287     0.034     0.002     0.000     0.059     0.114     0.001     0.000 .00000E+00 0.000E+00 0.000E+00 0.000E+00
BIGSUB   4        0    3.91800E+03    87.200    10.510    58.583    39.539   119.336     6.264     1.068     0.000     1.165     0.278     0.328     0.039     0.003     0.000     0.067     0.097     0.001     0.000 .00000E+00 0.000E+00 0.000E+00 0.000E+00
BIGSUB   5        0    3.37770E+04    87.200    10.509    58.740    39.740   122.012     3.960     0.591     0.000     0.667     0.122     0.187     0.022     0.002     0.000     0.038     0.076     0.001     0.000 .00000E+00 0.000E+00 0.000E+00 0.000E+00
BIGSUB   6        0    3.18250E+04    87.200    10.507    58.926    39.777   124.840     1.543     0.559     0.000     0.631     0.344     0.257     0.031     0.002     0.000     0.057     0.072     0.001     0.000 .00000E+00 0.000E+00 0.000E+00 0.000E+00
BIGSUB   7        0    3.14660E+04    87.200    10.507    58.944    39.572    91.496    25.000     6.319     0.267     6.595     0.405     1.064     0.126     0.033     0.001     0.233     0.009     0.000     0.010 .00000E+00 0.000E+00 0.000E+00 0.000E+00
BIGSUB   8        0    3.34940E+04    87.200    10.504    59.303    39.870    98.111    16.626     4.415     0.046     4.560     1.736     1.766     0.209     0.017     0.001     0.380     0.098     0.001     0.001 .00000E+00 0.000E+00 0.000E+00 0.000E+00
BIGSUB   9        0    3.47420E+04    77.000    30.270    51.346    36.352    99.941     0.000     2.210     0.000     2.254     0.028     0.171     0.019     0.015     0.001     0.047     0.044     0.001     0.000 .00000E+00 0.000E+00 0.000E+00 0.000E+00
[...]
BIGSUB   3        0   11.14590E+04    30.200     5.400    38.527     9.271    22.313     0.000     0.000     0.000     0.024     0.000     0.000     0.000     0.000     0.000     0.000     0.024     0.000     0.000 .00000E+00 0.000E+00 0.000E+00 0.000E+00
BIGSUB   4        0   11.91800E+03    30.200     5.400    38.550     9.365    22.233     0.000     0.000     0.000     0.017     0.000     0.000     0.000     0.000     0.000     0.000     0.017     0.000     0.000 .00000E+00 0.000E+00 0.000E+00 0.000E+00
BIGSUB   5        0   11.37770E+04    30.200     5.400    38.771     9.507    22.091     0.000     0.000     0.000     0.015     0.000     0.000     0.000     0.000     0.000     0.000     0.015     0.000     0.000 .00000E+00 0.000E+00 0.000E+00 0.000E+00
BIGSUB   6        0   11.18250E+04    30.200     5.400    39.034     9.566    21.940     0.000     0.000     0.000     0.017     0.000     0.000     0.000     0.000     0.000     0.000     0.017     0.000     0.000 .00000E+00 0.000E+00 0.000E+00 0.000E+00
BIGSUB   7        0   11.14660E+04    30.200     5.400    39.059    10.073    21.913     0.000     0.000     0.000     0.004     0.000     0.000     0.000     0.000     0.000     0.000     0.004     0.000     0.000 .00000E+00 0.000E+00 0.000E+00 0.000E+00
BIGSUB   8        0   11.34940E+04    30.200     5.400    39.568    10.126    21.653     0.000     0.000     0.000     0.019     0.000     0.000     0.000     0.000     0.000     0.000     0.019     0.000     0.000 .00000E+00 0.000E+00 0.000E+00 0.000E+00
BIGSUB   9        0   11.47420E+04    24.100     5.400    41.873    13.894    20.733     0.000     0.000     0.000     0.022     0.000     0.000     0.000     0.000     0.000     0.000     0.022     0.000     0.000 .00000E+00 0.000E+00 0.000E+00 0.000E+00
BIGSUB  10        0   11.13380E+04    24.100     5.400    42.235    15.303    19.449     0.000     0.000     0.000     0.014     0.000     0.000     0.000     0.000     0.000     0.000     0.014     0.000     0.000 .00000E+00 0.000E+00 0.000E+00 0.000E+00
BIGSUB  11        0   11.24060E+04    39.900     0.700    37.806    13.649    32.293     0.000     0.000     0.000     0.011     0.000     0.000     0.000     0.000     0.000     0.000     0.011     0.000     0.000 .00000E+00 0.000E+00 0.000E+00 0.000E+00
BIGSUB  12        0   11.19770E+04    15.200     2.000    38.925    10.267    10.730     0.000     0.000     0.000     0.007     0.000     0.000     0.000     0.000     0.000     0.000     0.007     0.000     0.000 .00000E+00 0.000E+00 0.000E+00 0.000E+00
BIGSUB  13        0   11.16410E+04    39.900     0.700    38.057    15.708    30.328     0.000     0.000     0.000     0.007     0.000     0.000     0.000     0.000     0.000     0.000     0.007     0.000     0.000 .00000E+00 0.000E+00 0.000E+00 0.000E+00
BIGSUB  14        0   11.52740E+04    15.200     2.000    39.372    10.297    10.667     0.000     0.000     0.000     0.011     0.000     0.000     0.000     0.000     0.000     0.000     0.011     0.000     0.000 .00000E+00 0.000E+00 0.000E+00 0.000E+00
BIGSUB  15        0   11.42200E+03    39.900     0.700    38.292    14.981    31.011     0.000     0.000     0.000     0.007     0.000     0.000     0.000     0.000     0.000     0.000     0.007     0.000     0.000 .00000E+00 0.000E+00 0.000E+00 0.000E+00
BIGSUB  16        0   11.13850E+04    39.900     0.700    38.493    12.299    33.559     0.000     0.000     0.000     0.007     0.000     0.000     0.000     0.000     0.000     0.000     0.007     0.000     0.000 .00000E+00 0.000E+00 0.000E+00 0.000E+00
BIGSUB  17        0   11.17180E+04    15.200     2.000    39.831     9.893    11.035     0.000     0.000     0.000     0.005     0.000     0.000     0.000     0.000     0.000     0.000     0.004     0.000     0.000 .00000E+00 0.000E+00 0.000E+00 0.000E+00
BIGSUB  18        0   11.26090E+04    15.200     2.000    39.683    10.585    10.364     0.000     0.000     0.000     0.009     0.000     0.000     0.000     0.000     0.000     0.000     0.009     0.000     0.000 .00000E+00 0.000E+00 0.000E+00 0.000E+00
BIGSUB  19        0   11.25380E+04    15.200     2.000    40.131    10.463    10.462     0.000     0.000     0.000     0.014     0.000     0.000     0.000     0.000     0.000     0.000     0.014     0.000     0.000 .00000E+00 0.000E+00 0.000E+00 0.000E+00
BIGSUB  20        0   11.19820E+04    15.200     2.000    40.270    10.375    10.548     0.000     0.000     0.000     0.017     0.000     0.000     0.000     0.000     0.000     0.000     0.017     0.000     0.000 .00000E+00 0.000E+00 0.000E+00 0.000E+00
BIGSUB   1        0   12.12360E+04    45.100     0.000    26.069    17.178    49.994     0.000     0.000     0.000     0.058     0.000     0.000     0.000     0.000     0.000     0.000     0.058     0.000     0.000 .00000E+00 0.000E+00 0.000E+00 0.000E+00
BIGSUB   2        0   12.37400E+03    45.100     0.000    26.186    17.148    49.394     0.000     0.000     0.000     0.412     0.000     0.000     0.000     0.000     0.000     0.000     0.412     0.001     0.000 .00000E+00 0.000E+00 0.000E+00 0.000E+00
BIGSUB   3        0   12.14590E+04    45.100     0.000    26.066    17.102    50.173     0.000     0.000     0.000     0.066     0.000     0.000     0.000     0.000     0.000     0.000     0.066     0.000     0.000 .00000E+00 0.000E+00 0.000E+00 0.000E+00
BIGSUB   4        0   12.91800E+03    45.100     0.000    26.087    17.160    50.072     0.000     0.000     0.000     0.056     0.000     0.000     0.000     0.000     0.000     0.000     0.056     0.000     0.000 .00000E+00 0.000E+00 0.000E+00 0.000E+00
BIGSUB   5        0   12.37770E+04    45.100     0.000    26.277    17.146    49.956     0.000     0.000     0.000     0.043     0.000     0.000     0.000     0.000     0.000     0.000     0.043     0.000     0.000 .00000E+00 0.000E+00 0.000E+00 0.000E+00
BIGSUB   6        0   12.18250E+04    45.100     0.000    26.505    17.290    49.643     0.000     0.000     0.000     0.038     0.000     0.000     0.000     0.000     0.000     0.000     0.038     0.000     0.000 .00000E+00 0.000E+00 0.000E+00 0.000E+00
BIGSUB   7        0   12.14660E+04    45.100     0.000    26.526    17.771    49.219     0.000     0.000     0.000     0.006     0.000     0.000     0.000     0.000     0.000     0.000     0.006     0.000     0.000 .00000E+00 0.000E+00 0.000E+00 0.000E+00
BIGSUB   8        0   12.34940E+04    45.100     0.000    26.967    18.129    48.509     0.000     0.000     0.000     0.056     0.000     0.000     0.000     0.000     0.000     0.000     0.056     0.000     0.000 .00000E+00 0.000E+00 0.000E+00 0.000E+00
BIGSUB   9        0   12.47420E+04    12.900     0.000    27.949    10.706    22.913     0.000     0.000     0.000     0.024     0.000     0.000     0.000     0.000     0.000     0.000     0.024     0.000     0.000 .00000E+00 0.000E+00 0.000E+00 0.000E+00
BIGSUB  10        0   12.13380E+04    12.900     0.000    28.252    13.870    18.469     0.000     0.000     0.000     0.015     0.000     0.000     0.000     0.000     0.000     0.000     0.015     0.000     0.000 .00000E+00 0.000E+00 0.000E+00 0.000E+00
BIGSUB  11        0   12.24060E+04    40.500     0.354    25.023    18.042    54.710     0.000     0.000     0.000     0.017     0.000     0.000     0.000     0.000     0.000     0.000     0.017     0.000     0.000 .00000E+00 0.000E+00 0.000E+00 0.000E+00
BIGSUB  12        0   12.19770E+04    17.700     3.476    24.035     8.523    19.898     0.000     0.000     0.000     0.008     0.000     0.000     0.000     0.000     0.000     0.000     0.008     0.000     0.000 .00000E+00 0.000E+00 0.000E+00 0.000E+00
BIGSUB  13        0   12.16410E+04    40.500     0.354    25.231    17.520    53.284     0.000     0.000     0.000     0.009     0.000     0.000     0.000     0.000     0.000     0.000     0.009     0.000     0.000 .00000E+00 0.000E+00 0.000E+00 0.000E+00
BIGSUB  14        0   12.52740E+04    17.700     3.474    24.381     9.220    19.133     0.000     0.000     0.000     0.013     0.000     0.000     0.000     0.000     0.000     0.000     0.013     0.000     0.000 .00000E+00 0.000E+00 0.000E+00 0.000E+00
BIGSUB  15        0   12.42200E+03    40.500     0.354    25.426    17.859    53.628     0.000     0.000     0.000     0.010     0.000     0.000     0.000     0.000     0.000     0.000     0.010     0.000     0.000 .00000E+00 0.000E+00 0.000E+00 0.000E+00
BIGSUB  16        0   12.13850E+04    40.500     0.354    25.594    18.817    55.216     0.000     0.000     0.000     0.011     0.000     0.000     0.000     0.000     0.000     0.000     0.011     0.000     0.000 .00000E+00 0.000E+00 0.000E+00 0.000E+00
BIGSUB  17        0   12.17180E+04    17.700     3.472    24.736    11.149    17.583     0.000     0.000     0.000     0.005     0.000     0.000     0.000     0.000     0.000     0.000     0.005     0.000     0.000 .00000E+00 0.000E+00 0.000E+00 0.000E+00
BIGSUB  18        0   12.26090E+04    17.700     3.473    24.621     8.729    19.323     0.000     0.000     0.000     0.010     0.000     0.000     0.000     0.000     0.000     0.000     0.010     0.000     0.000 .00000E+00 0.000E+00 0.000E+00 0.000E+00
BIGSUB  19        0   12.25380E+04    17.700     3.471    24.969     9.388    18.753     0.000     0.000     0.000     0.022     0.000     0.000     0.000     0.000     0.000     0.000     0.022     0.000     0.000 .00000E+00 0.000E+00 0.000E+00 0.000E+00
BIGSUB  20        0   12.19820E+04    17.700     3.470    25.077     9.599    18.625     0.000     0.000     0.000     0.026     0.000     0.000     0.000     0.000     0.000     0.000     0.026     0.000     0.000 .00000E+00 0.000E+00 0.000E+00 0.000E+00
BIGSUB   1        0 2001.12360E+04   175.100     7.600  1387.187   184.820    49.994     0.000     0.000     0.000     0.316     0.000     0.000     0.000     0.000     0.000     0.000     0.316     0.001     0.000 .00000E+00 0.000E+00 0.000E+00 0.000E+00
BIGSUB   2        0 2001.37400E+03   175.100     7.600  1388.431   184.261    49.394     0.000     0.000     0.000     1.447     0.000     0.000     0.000     0.000     0.000     0.000     1.446     0.003     0.000 .00000E+00 0.000E+00 0.000E+00 0.000E+00
BIGSUB   3        0 2001.14590E+04   175.100     7.600  1387.160   185.875    50.173     0.000     0.000     0.000     0.456     0.000     0.000     0.000     0.000     0.000     0.000     0.456     0.001     0.000 .00000E+00 0.000E+00 0.000E+00 0.000E+00
BIGSUB   4        0 2001.91800E+03   175.100     7.600  1387.376   185.293    50.072     0.000     0.000     0.000     0.315     0.000     0.000     0.000     0.000     0.000     0.000     0.315     0.001     0.000 .00000E+00 0.000E+00 0.000E+00 0.000E+00
BIGSUB   5        0 2001.37770E+04   175.100     7.600  1389.395   186.228    49.956     0.000     0.000     0.000     0.289     0.000     0.000     0.000     0.000     0.000     0.000     0.288     0.001     0.000 .00000E+00 0.000E+00 0.000E+00 0.000E+00
BIGSUB   6        0 2001.18250E+04   175.100     7.600  1391.795   186.684    49.643     0.000     0.000     0.000     0.377     0.000     0.000     0.000     0.000     0.000     0.000     0.377     0.001     0.000 .00000E+00 0.000E+00 0.000E+00 0.000E+00
BIGSUB   7        0 2001.14660E+04   175.100     7.600  1392.018   181.366    49.219     0.000     0.000     0.000     0.069     0.000     0.000     0.000     0.000     0.000     0.000     0.069     0.000     0.000 .00000E+00 0.000E+00 0.000E+00 0.000E+00
BIGSUB   8        0 2001.34940E+04   175.100     7.600  1396.615   182.279    48.509     0.000     0.000     0.000     0.346     0.000     0.000     0.000     0.000     0.000     0.000     0.346     0.001     0.000 .00000E+00 0.000E+00 0.000E+00 0.000E+00
BIGSUB   9        0 2001.47420E+04   200.400    13.300  1264.808   220.491    22.913     0.000     0.000     0.000     0.246     0.000     0.000     0.000     0.000     0.000     0.000     0.246     0.001     0.000 .00000E+00 0.000E+00 0.000E+00 0.000E+00
BIGSUB  10        0 2001.13380E+04   200.400    13.300  1267.567   222.137    18.469     0.000     0.001     0.000     0.186     0.000     0.000     0.000     0.000     0.000     0.000     0.186     0.001     0.000 .00000E+00 0.000E+00 0.000E+00 0.000E+00
BIGSUB  11        0 2001.24060E+04   213.100    33.037  1159.323   222.915    54.710     0.000     1.717     0.330     2.208     0.196     0.259     0.032     0.008     0.000     0.058     0.161     0.001     0.002 .00000E+00 0.000E+00 0.000E+00 0.000E+00
BIGSUB  12        0 2001.19770E+04   180.000    62.616  1163.035   236.471    19.898     0.000     3.828     0.000     3.943     0.095     0.395     0.048     0.014     0.001     0.078     0.115     0.000     0.000 .00000E+00 0.000E+00 0.000E+00 0.000E+00
BIGSUB  13        0 2001.16410E+04   213.100    33.035  1161.186   220.851    53.284     0.000     3.065     0.897     4.063     0.236     0.400     0.049     0.015     0.000     0.089     0.101     0.001     0.005 .00000E+00 0.000E+00 0.000E+00 0.000E+00
BIGSUB  14        0 2001.52740E+04   180.000    62.585  1166.188   232.695    19.133     0.000     6.051     0.000     6.267     0.266     0.767     0.093     0.024     0.001     0.150     0.216     0.001     0.000 .00000E+00 0.000E+00 0.000E+00 0.000E+00
BIGSUB  15        0 2001.42200E+03   213.100    33.033  1162.915   222.309    53.628     0.000     2.140     0.768     3.008     0.129     0.222     0.027     0.010     0.000     0.049     0.100     0.000     0.004 .00000E+00 0.000E+00 0.000E+00 0.000E+00
BIGSUB  16        0 2001.13850E+04   213.100    33.032  1164.393   225.111    55.216     0.000     0.261     0.000     0.369     0.005     0.013     0.002     0.001     0.000     0.003     0.108     0.000     0.000 .00000E+00 0.000E+00 0.000E+00 0.000E+00
BIGSUB  17        0 2001.17180E+04   180.000    62.553  1169.387   218.266    17.583     0.000    16.621     0.435    17.127     0.422     1.364     0.166     0.063     0.003     0.304     0.071     0.000     0.001 .00000E+00 0.000E+00 0.000E+00 0.000E+00
BIGSUB  18        0 2001.26090E+04   180.000    62.563  1168.357   239.510    19.323     0.000     1.143     0.000     1.308     0.000     0.001     0.000     0.005     0.000     0.000     0.165     0.001     0.000 .00000E+00 0.000E+00 0.000E+00 0.000E+00
BIGSUB  19        0 2001.25380E+04   180.000    62.532  1171.455   234.135    18.753     0.000     4.701     0.000     4.986     0.337     0.648     0.079     0.018     0.001     0.136     0.285     0.001     0.000 .00000E+00 0.000E+00 0.000E+00 0.000E+00
BIGSUB  20        0 2001.19820E+04   180.000    62.522  1172.410   232.328    18.625     0.000     5.817     0.000     6.147     0.359     0.769     0.093     0.022     0.001     0.162     0.330     0.001     0.000 .00000E+00 0.000E+00 0.000E+00 0.000E+00
BIGSUB   1        0 12.0.12360E+04   273.842    46.598  1301.699   262.019    49.994     6.162     3.525     1.803     5.811     0.563     0.858     0.103     0.013     0.001     0.190     0.483     0.002     0.017 .00000E+00 0.000E+00 0.000E+00 0.000E+00
BIGSUB   2        0 12.0.37400E+03   273.842    46.595  1302.846   262.181    49.394     4.583     3.279     1.285     6.786     1.518     1.369     0.164     0.012     0.001     0.310     2.221     0.009     0.012 .00000E+00 0.000E+00 0.000E+00 0.000E+00
BIGSUB   3        0 12.0.14590E+04   273.842    46.598  1301.675   265.512    50.173     3.513     2.640     0.933     4.261     0.889     0.924     0.111     0.009     0.001     0.217     0.688     0.003     0.009 .00000E+00 0.000E+00 0.000E+00 0.000E+00
BIGSUB   4        0 12.0.91800E+03   273.842    46.597  1301.874   263.495    50.072     5.107     3.219     1.442     5.140     0.778     0.910     0.109     0.011     0.001     0.204     0.480     0.002     0.014 .00000E+00 0.000E+00 0.000E+00 0.000E+00
BIGSUB   5        0 12.0.37770E+04   273.842    46.592  1303.735   265.566    49.956     3.074     3.086     0.939     4.464     0.421     0.798     0.096     0.011     0.001     0.173     0.438     0.002     0.009 .00000E+00 0.000E+00 0.000E+00 0.000E+00
BIGSUB   6        0 12.0.18250E+04   273.842    46.586  1305.946   267.243    49.643     1.176     3.135     0.374     4.093     0.733     0.933     0.113     0.009     0.001     0.209     0.584     0.003     0.005 .00000E+00 0.000E+00 0.000E+00 0.000E+00
BIGSUB   7        0 12.0.14660E+04   273.842    46.586  1306.152   247.872    49.219    11.834    11.138     4.905    16.147     0.718     1.817     0.219     0.042     0.002     0.403     0.104     0.001     0.081 .00000E+00 0.000E+00 0.000E+00 0.000E+00
BIGSUB   8        0 12.0.34940E+04   273.842    46.574  1310.320   251.006    48.509     8.318    11.715     3.064    15.308     3.383     3.864     0.465     0.044     0.002     0.837     0.529     0.002     0.038 .00000E+00 0.000E+00 0.000E+00 0.000E+00
BIGSUB   9        0 12.0.47420E+04   283.017    46.042  1206.171   274.230    22.913     3.106     4.164     1.126     5.625     0.262     0.641     0.071     0.022     0.001     0.133     0.334     0.005     0.094 .00000E+00 0.000E+00 0.000E+00 0.000E+00
BIGSUB  10        0 12.0.13380E+04   283.017    46.034  1208.742   259.269    18.469     8.777    13.640     3.687    17.579     1.720     2.950     0.335     0.068     0.003     0.620     0.253     0.004     0.353 .00000E+00 0.000E+00 0.000E+00 0.000E+00
BIGSUB  11        0 12.0.24060E+04   400.261    99.356  1092.950   326.276    54.710    29.908    39.318    18.291    57.925     2.716     4.314     0.519     0.129     0.006     0.960     0.316     0.002     0.351 .00000E+00 0.000E+00 0.000E+00 0.000E+00
BIGSUB  12        0 12.0.19770E+04   347.875    81.081  1113.007   321.837    19.898     9.227    17.109     4.015    21.319     0.407     1.593     0.188     0.059     0.004     0.308     0.195     0.001     0.094 .00000E+00 0.000E+00 0.000E+00 0.000E+00
BIGSUB  13        0 12.0.16410E+04   400.261    99.347  1094.717   292.836    53.284    51.592    50.904    35.290    86.376     2.973     5.346     0.645     0.172     0.008     1.179     0.183     0.001     0.669 .00000E+00 0.000E+00 0.000E+00 0.000E+00
BIGSUB  14        0 12.0.52740E+04   347.875    81.045  1115.920   303.492    19.133    24.846    19.059    12.977    32.426     0.856     2.481     0.296     0.068     0.004     0.497     0.390     0.003     0.320 .00000E+00 0.000E+00 0.000E+00 0.000E+00
BIGSUB  15        0 12.0.42200E+03   400.261    99.339  1096.356   306.650    53.628    45.451    43.895    30.304    74.391     2.008     3.555     0.428     0.142     0.008     0.787     0.192     0.001     0.578 .00000E+00 0.000E+00 0.000E+00 0.000E+00
BIGSUB  16        0 12.0.13850E+04   400.261    99.332  1097.758   351.216    55.216    20.959    23.823    11.623    35.667     0.582     1.385     0.166     0.070     0.005     0.341     0.221     0.001     0.272 .00000E+00 0.000E+00 0.000E+00 0.000E+00
BIGSUB  17        0 12.0.17180E+04   347.875    81.028  1118.941   261.480    17.583    44.928    40.094    28.957    69.175     1.043     3.363     0.402     0.143     0.008     0.737     0.125     0.001     0.664 .00000E+00 0.000E+00 0.000E+00 0.000E+00
BIGSUB  18        0 12.0.26090E+04   347.875    81.033  1117.968   323.685    19.323    16.673     8.104     7.036    15.432     0.123     0.428     0.051     0.025     0.002     0.111     0.293     0.002     0.204 .00000E+00 0.000E+00 0.000E+00 0.000E+00
BIGSUB  19        0 12.0.25380E+04   347.875    81.016  1120.895   302.697    18.753    29.943    15.896    16.617    33.081     1.235     2.219     0.263     0.055     0.003     0.467     0.568     0.004     0.331 .00000E+00 0.000E+00 0.000E+00 0.000E+00
BIGSUB  20        0 12.0.19820E+04   347.875    81.011  1121.796   295.081    18.625    35.412    17.778    20.637    39.102     1.287     2.529     0.299     0.064     0.003     0.532     0.687     0.005     0.396 .00000E+00 0.000E+00 0.000E+00 0.000E+00
