1
    SWAT Apr 12 2013    VER 2012/Rev 591                                                                 0/ 0/   0      0: 0: 0

    General Input/Output section (file.cio):                                        
    11/14/2011 12:00:00 AM ARCGIS-SWAT interface AV                                 
                                                                                    


       SUB      GIS  MON   AREAkm2  PRECIPmm SNOMELTmm     PETmm      ETmm      SWmm    PERCmm    SURQmm    GW_Qmm    WYLDmm  SYLDt/ha ORGNkg/ha ORGPkg/haNSURQkg/ha SOLPkg/ha SEDPkg/ha LAT Q(mm)LATNO3kg/hGWNO3kg/haCHOLAmic/LCBODU mg/L DOXQ mg/L TNO3kg/ha
BIGSUB   1        0    1.12360E+04    51.400    11.225    15.052     7.450    62.683     0.000     1.297     0.161     1.523     0.073     0.119     0.014     0.014     0.000     0.027     0.065     0.000     0.000 .00000E+00 0.000E+00 0.000E+00 0.000E+00
BIGSUB   2        0    1.37400E+03    51.400    11.225    15.113     7.534    62.209     0.000     1.233     0.126     1.754     0.208     0.178     0.021     0.014     0.000     0.042     0.395     0.002     0.000 .00000E+00 0.000E+00 0.000E+00 0.000E+00
BIGSUB   3        0    1.14590E+04    51.400    11.225    15.050     7.484    64.029     0.000     1.134     0.128     1.342     0.117     0.128     0.015     0.013     0.000     0.031     0.080     0.000     0.000 .00000E+00 0.000E+00 0.000E+00 0.000E+00
BIGSUB   4        0    1.91800E+03    51.400    11.225    15.061     7.469    63.234     0.000     1.240     0.131     1.434     0.107     0.132     0.016     0.013     0.000     0.031     0.063     0.000     0.000 .00000E+00 0.000E+00 0.000E+00 0.000E+00
BIGSUB   5        0    1.37770E+04    51.400    11.225    15.160     7.594    63.477     0.000     1.302     0.227     1.581     0.035     0.078     0.009     0.015     0.000     0.017     0.052     0.000     0.000 .00000E+00 0.000E+00 0.000E+00 0.000E+00
BIGSUB   6        0    1.18250E+04    51.400    11.225    15.279     7.683    62.810     0.000     1.297     0.248     1.602     0.038     0.028     0.003     0.014     0.000     0.006     0.057     0.000     0.000 .00000E+00 0.000E+00 0.000E+00 0.000E+00
BIGSUB   7        0    1.14660E+04    51.400    11.225    15.290     7.479    53.363     0.000     3.434     0.339     3.779     0.109     0.276     0.033     0.028     0.001     0.061     0.007     0.000     0.000 .00000E+00 0.000E+00 0.000E+00 0.000E+00
BIGSUB   8        0    1.34940E+04    51.400    11.225    15.520     7.624    57.013     0.000     2.564     0.170     2.801     0.495     0.520     0.061     0.019     0.000     0.111     0.067     0.000     0.000 .00000E+00 0.000E+00 0.000E+00 0.000E+00
BIGSUB   9        0    1.47420E+04    26.400    12.813    16.126     5.555    28.465     0.000     0.000     0.096     0.107     0.000     0.000     0.000     0.000     0.000     0.000     0.011     0.000     0.000 .00000E+00 0.000E+00 0.000E+00 0.000E+00
BIGSUB  10        0    1.13380E+04    26.400    12.807    16.283     7.153    24.383     0.000     0.000     0.086     0.095     0.000     0.000     0.000     0.000     0.000     0.000     0.008     0.000     0.000 .00000E+00 0.000E+00 0.000E+00 0.000E+00
BIGSUB  11        0    1.24060E+04    38.272    37.456    20.882     9.183    42.855     0.000     8.860     0.399     9.274     0.728     0.889     0.099     0.129     0.001     0.184     0.014     0.000     0.000 .00000E+00 0.000E+00 0.000E+00 0.000E+00
BIGSUB  12        0    1.19770E+04    46.500     4.125    14.944     6.845    53.430     0.000     0.918     0.242     1.170     0.025     0.099     0.011     0.025     0.000     0.019     0.010     0.000     0.000 .00000E+00 0.000E+00 0.000E+00 0.000E+00
BIGSUB  13        0    1.16410E+04    38.272    37.453    21.038    10.736    37.989     0.000    11.777     0.900    12.684     0.795     1.156     0.130     0.166     0.002     0.240     0.007     0.000     0.000 .00000E+00 0.000E+00 0.000E+00 0.000E+00
BIGSUB  14        0    1.52740E+04    46.500     4.125    15.141     6.781    50.627     0.000     0.729     0.326     1.075     0.009     0.035     0.004     0.029     0.000     0.007     0.020     0.000     0.000 .00000E+00 0.000E+00 0.000E+00 0.000E+00
BIGSUB  15        0    1.42200E+03    38.272    37.451    21.185    10.215    42.172     0.000     9.725     0.900    10.634     0.500     0.768     0.087     0.118     0.002     0.161     0.009     0.000     0.000 .00000E+00 0.000E+00 0.000E+00 0.000E+00
BIGSUB  16        0    1.13850E+04    38.272    37.448    21.310     8.001    45.594     0.000     7.286     0.204     7.500     0.161     0.305     0.033     0.127     0.001     0.071     0.011     0.000     0.000 .00000E+00 0.000E+00 0.000E+00 0.000E+00
BIGSUB  17        0    1.17180E+04    46.500     4.125    15.342     6.656    44.845     0.000     0.872     0.412     1.290     0.011     0.047     0.005     0.032     0.000     0.010     0.005     0.000     0.000 .00000E+00 0.000E+00 0.000E+00 0.000E+00
BIGSUB  18        0    1.26090E+04    46.500     4.125    15.277     6.872    52.539     0.000     0.645     0.234     0.894     0.003     0.013     0.001     0.028     0.000     0.003     0.015     0.000     0.000 .00000E+00 0.000E+00 0.000E+00 0.000E+00
BIGSUB  19        0    1.25380E+04    46.500     4.125    15.474     6.840    50.760     0.000     0.731     0.444     1.211     0.031     0.067     0.008     0.027     0.000     0.014     0.036     0.000     0.000 .00000E+00 0.000E+00 0.000E+00 0.000E+00
BIGSUB  20        0    1.19820E+04    46.500     4.125    15.535     6.797    50.311     0.000     0.717     0.551     1.310     0.033     0.074     0.008     0.025     0.000     0.016     0.043     0.001     0.000 .00000E+00 0.000E+00 0.000E+00 0.000E+00
BIGSUB   1        0    2.12360E+04    40.600    43.800    25.836    17.558    79.584     0.000    17.703     0.171    17.917     4.317     4.544     0.535     0.077     0.003     1.198     0.043     0.000     0.000 .00000E+00 0.000E+00 0.000E+00 0.000E+00
BIGSUB   2        0    2.37400E+03    40.600    43.798    25.908    17.579    77.163     0.000    19.521     0.144    19.846    13.328     7.549     0.882     0.083     0.003     2.006     0.181     0.002     0.000 .00000E+00 0.000E+00 0.000E+00 0.000E+00
BIGSUB   3        0    2.14590E+04    40.600    43.800    25.835    16.937    76.494     0.000    22.681     0.146    22.884     7.804     6.878     0.807     0.086     0.004     1.952     0.057     0.000     0.000 .00000E+00 0.000E+00 0.000E+00 0.000E+00
BIGSUB   4        0    2.91800E+03    40.600    43.800    25.847    17.316    78.363     0.000    19.814     0.143    19.999     5.877     5.224     0.614     0.081     0.003     1.410     0.042     0.000     0.000 .00000E+00 0.000E+00 0.000E+00 0.000E+00
BIGSUB   5        0    2.37770E+04    40.600    43.795    25.964    17.275    76.514     0.000    21.343     0.246    21.625     3.661     5.824     0.690     0.080     0.003     1.323     0.037     0.000     0.000 .00000E+00 0.000E+00 0.000E+00 0.000E+00
BIGSUB   6        0    2.18250E+04    40.600    43.790    26.104    16.816    71.182     0.000    26.172     0.273    26.489     6.115     7.386     0.883     0.084     0.004     1.701     0.044     0.000     0.000 .00000E+00 0.000E+00 0.000E+00 0.000E+00
BIGSUB   7        0    2.14660E+04    40.600    43.789    26.117    16.908    61.083     0.000    26.791     0.350    27.147     2.728     5.483     0.654     0.103     0.004     1.220     0.006     0.000     0.000 .00000E+00 0.000E+00 0.000E+00 0.000E+00
BIGSUB   8        0    2.34940E+04    40.600    43.779    26.378    17.583    60.745     0.000    30.566     0.186    30.789    13.705    11.064     1.291     0.139     0.004     2.328     0.037     0.000     0.000 .00000E+00 0.000E+00 0.000E+00 0.000E+00
BIGSUB   9        0    2.47420E+04    35.500    36.773    23.388    10.640    47.983     0.000    16.014     0.105    16.133     1.404     2.769     0.325     0.082     0.004     0.829     0.014     0.000     0.000 .00000E+00 0.000E+00 0.000E+00 0.000E+00
BIGSUB  10        0    2.13380E+04    35.500    36.769    23.547    11.839    55.442     0.000     3.734     0.086     3.829     0.910     1.317     0.156     0.022     0.001     0.294     0.009     0.000     0.000 .00000E+00 0.000E+00 0.000E+00 0.000E+00
BIGSUB  11        0    2.24060E+04    26.224     9.666    21.797    10.320    36.210     0.000     8.893     0.353     9.257     0.354     0.749     0.083     0.107     0.001     0.156     0.011     0.000     0.000 .00000E+00 0.000E+00 0.000E+00 0.000E+00
BIGSUB  12        0    2.19770E+04    44.900    32.625    19.464     7.785    58.774     0.000    20.057     0.229    20.294     0.598     2.309     0.266     0.167     0.004     0.446     0.008     0.000     0.000 .00000E+00 0.000E+00 0.000E+00 0.000E+00
BIGSUB  13        0    2.16410E+04    26.224     9.666    21.916    11.475    30.310     0.000     8.814     0.780     9.599     0.350     0.829     0.094     0.107     0.001     0.173     0.006     0.000     0.000 .00000E+00 0.000E+00 0.000E+00 0.000E+00
BIGSUB  14        0    2.52740E+04    44.900    32.625    19.642     7.660    70.726     0.000     5.250     0.308     5.574     0.134     0.467     0.054     0.084     0.001     0.094     0.016     0.000     0.000 .00000E+00 0.000E+00 0.000E+00 0.000E+00
BIGSUB  15        0    2.42200E+03    26.224     9.666    22.027    11.154    34.886     0.000     7.376     0.772     8.155     0.263     0.516     0.058     0.085     0.001     0.108     0.007     0.000     0.000 .00000E+00 0.000E+00 0.000E+00 0.000E+00
BIGSUB  16        0    2.13850E+04    26.224     9.666    22.122     9.242    40.349     0.000     8.288     0.189     8.486     0.101     0.350     0.038     0.092     0.001     0.079     0.008     0.000     0.000 .00000E+00 0.000E+00 0.000E+00 0.000E+00
BIGSUB  17        0    2.17180E+04    44.900    32.625    19.824     7.585    61.942     0.000     8.336     0.381     8.722     0.147     0.574     0.066     0.110     0.002     0.123     0.004     0.000     0.000 .00000E+00 0.000E+00 0.000E+00 0.000E+00
BIGSUB  18        0    2.26090E+04    44.900    32.625    19.765     7.717    74.246     0.000     3.774     0.227     4.014     0.034     0.135     0.015     0.065     0.001     0.034     0.013     0.000     0.000 .00000E+00 0.000E+00 0.000E+00 0.000E+00
BIGSUB  19        0    2.25380E+04    44.900    32.625    19.942     7.753    74.120     0.000     2.644     0.391     3.058     0.048     0.131     0.015     0.037     0.001     0.030     0.023     0.000     0.000 .00000E+00 0.000E+00 0.000E+00 0.000E+00
BIGSUB  20        0    2.19820E+04    44.900    32.625    19.997     7.713    69.331     0.000     7.064     0.480     7.571     0.184     0.445     0.050     0.046     0.002     0.123     0.027     0.001     0.000 .00000E+00 0.000E+00 0.000E+00 0.000E+00
BIGSUB   1        0    3.12360E+04    40.400     3.000    69.276    38.812    79.264     0.000     1.573     0.200     1.828     0.365     0.421     0.050     0.011     0.000     0.088     0.055     0.000     0.000 .00000E+00 0.000E+00 0.000E+00 0.000E+00
BIGSUB   2        0    3.37400E+03    40.400     3.000    69.392    39.054    76.675     0.000     1.362     0.165     1.807     0.939     0.508     0.060     0.009     0.000     0.105     0.281     0.002     0.000 .00000E+00 0.000E+00 0.000E+00 0.000E+00
BIGSUB   3        0    3.14590E+04    40.400     3.000    69.274    39.392    76.431     0.000     0.854     0.172     1.098     0.550     0.317     0.037     0.006     0.000     0.066     0.072     0.001     0.000 .00000E+00 0.000E+00 0.000E+00 0.000E+00
BIGSUB   4        0    3.91800E+03    40.400     3.000    69.294    39.051    78.152     0.000     1.333     0.164     1.551     0.522     0.408     0.048     0.009     0.000     0.085     0.054     0.000     0.000 .00000E+00 0.000E+00 0.000E+00 0.000E+00
BIGSUB   5        0    3.37770E+04    40.400     3.000    69.482    39.627    75.619     0.000     1.158     0.303     1.508     0.272     0.329     0.039     0.009     0.000     0.071     0.046     0.000     0.000 .00000E+00 0.000E+00 0.000E+00 0.000E+00
BIGSUB   6        0    3.18250E+04    40.400     3.000    69.706    39.829    70.370     0.000     0.860     0.343     1.257     0.260     0.198     0.024     0.005     0.000     0.045     0.055     0.000     0.000 .00000E+00 0.000E+00 0.000E+00 0.000E+00
BIGSUB   7        0    3.14660E+04    40.400     3.000    69.727    36.052    59.671     0.000     4.652     0.443     5.101     0.403     0.818     0.098     0.034     0.001     0.183     0.007     0.000     0.000 .00000E+00 0.000E+00 0.000E+00 0.000E+00
BIGSUB   8        0    3.34940E+04    40.400     3.000    70.158    36.837    60.829     0.000     2.940     0.230     3.217     0.712     0.521     0.061     0.019     0.000     0.113     0.048     0.000     0.000 .00000E+00 0.000E+00 0.000E+00 0.000E+00
BIGSUB   9        0    3.47420E+04    44.100     0.500    61.109    29.810    58.435     0.000     3.037     0.181     3.255     0.532     0.913     0.107     0.023     0.001     0.198     0.037     0.001     0.000 .00000E+00 0.000E+00 0.000E+00 0.000E+00
BIGSUB  10        0    3.13380E+04    44.100     0.500    61.359    28.550    57.239     0.000    13.182     0.134    13.330     3.287     4.286     0.509     0.085     0.003     0.958     0.014     0.000     0.000 .00000E+00 0.000E+00 0.000E+00 0.000E+00
BIGSUB  11        0    3.24060E+04     1.524    15.721    54.749    16.108    24.730     0.000    12.531     0.375    12.916     0.859     1.222     0.136     0.095     0.002     0.254     0.011     0.000     0.000 .00000E+00 0.000E+00 0.000E+00 0.000E+00
BIGSUB  12        0    3.19770E+04    82.900    67.538    49.658    40.168    97.153     0.000    48.277     0.375    48.665     2.188     7.175     0.829     0.243     0.010     1.389     0.012     0.000     0.000 .00000E+00 0.000E+00 0.000E+00 0.000E+00
BIGSUB  13        0    3.16410E+04     1.524    15.721    54.925    15.484    19.610     0.000    12.366     0.816    13.188     0.848     1.319     0.149     0.096     0.002     0.275     0.006     0.000     0.000 .00000E+00 0.000E+00 0.000E+00 0.000E+00
BIGSUB  14        0    3.52740E+04    82.900    67.513    49.929    39.965   107.458     0.000    48.970     0.498    49.495     2.211     6.378     0.730     0.206     0.010     1.335     0.026     0.001     0.000 .00000E+00 0.000E+00 0.000E+00 0.000E+00
BIGSUB  15        0    3.42200E+03     1.524    15.721    55.089    15.976    23.786     0.000    12.296     0.806    13.109     0.659     1.031     0.116     0.090     0.002     0.216     0.007     0.000     0.000 .00000E+00 0.000E+00 0.000E+00 0.000E+00
BIGSUB  16        0    3.13850E+04     1.524    15.721    55.229    16.516    28.842     0.000    12.147     0.206    12.361     0.250     0.601     0.066     0.082     0.002     0.137     0.008     0.000     0.000 .00000E+00 0.000E+00 0.000E+00 0.000E+00
BIGSUB  17        0    3.17180E+04    82.900    67.487    50.204    40.067    89.387     0.000    58.219     0.571    58.796     1.845     6.050     0.701     0.278     0.012     1.302     0.006     0.000     0.000 .00000E+00 0.000E+00 0.000E+00 0.000E+00
BIGSUB  18        0    3.26090E+04    82.900    67.495    50.115    39.696   116.626     0.000    44.268     0.384    44.672     0.925     3.152     0.355     0.161     0.010     0.799     0.020     0.000     0.000 .00000E+00 0.000E+00 0.000E+00 0.000E+00
BIGSUB  19        0    3.25380E+04    82.900    67.470    50.383    40.223   112.633     0.000    48.740     0.490    49.296     3.045     6.386     0.722     0.211     0.009     1.354     0.066     0.001     0.000 .00000E+00 0.000E+00 0.000E+00 0.000E+00
BIGSUB  20        0    3.19820E+04    82.900    67.462    50.466    40.156   107.938     0.000    48.606     0.584    49.268     3.382     7.111     0.804     0.231     0.009     1.523     0.077     0.001     0.000 .00000E+00 0.000E+00 0.000E+00 0.000E+00
BIGSUB   1        0    4.12360E+04    69.300     3.800   105.468    49.539    88.322     0.000     9.978     0.212    10.257     2.945     2.945     0.351     0.053     0.002     0.639     0.067     0.000     0.000 .00000E+00 0.000E+00 0.000E+00 0.000E+00
BIGSUB   2        0    4.37400E+03    69.300     3.800   105.546    49.789    86.109     0.000     9.210     0.171     9.734     7.874     3.647     0.432     0.046     0.001     0.802     0.352     0.002     0.000 .00000E+00 0.000E+00 0.000E+00 0.000E+00
BIGSUB   3        0    4.14590E+04    69.300     3.800   105.466    50.673    88.005     0.000     6.443     0.179     6.710     4.478     2.383     0.282     0.032     0.001     0.538     0.088     0.001     0.000 .00000E+00 0.000E+00 0.000E+00 0.000E+00
BIGSUB   4        0    4.91800E+03    69.300     3.800   105.480    49.999    88.235     0.000     8.719     0.169     8.954     4.087     2.856     0.340     0.045     0.001     0.625     0.065     0.000     0.000 .00000E+00 0.000E+00 0.000E+00 0.000E+00
BIGSUB   5        0    4.37770E+04    69.300     3.800   105.607    50.470    83.466     0.000     9.742     0.330    10.129     2.552     2.919     0.348     0.049     0.002     0.649     0.057     0.000     0.000 .00000E+00 0.000E+00 0.000E+00 0.000E+00
BIGSUB   6        0    4.18250E+04    69.300     3.800   105.759    50.920    78.716     0.000     8.566     0.374     9.011     2.291     2.199     0.265     0.036     0.001     0.512     0.071     0.001     0.000 .00000E+00 0.000E+00 0.000E+00 0.000E+00
BIGSUB   7        0    4.14660E+04    69.300     3.800   105.773    44.444    62.715     0.000    19.273     0.503    19.783     2.294     4.021     0.484     0.115     0.003     0.909     0.007     0.000     0.000 .00000E+00 0.000E+00 0.000E+00 0.000E+00
BIGSUB   8        0    4.34940E+04    69.300     3.800   106.061    46.120    67.665     0.000    15.145     0.260    15.473     6.375     3.766     0.446     0.085     0.002     0.825     0.068     0.000     0.000 .00000E+00 0.000E+00 0.000E+00 0.000E+00
BIGSUB   9        0    4.47420E+04    55.600     0.000    96.776    37.440    72.408     0.000     3.311     0.192     3.548     1.124     1.422     0.168     0.031     0.001     0.310     0.045     0.001     0.000 .00000E+00 0.000E+00 0.000E+00 0.000E+00
BIGSUB  10        0    4.13380E+04    55.600     0.000    96.948    32.218    65.483     0.000    14.310     0.152    14.479     6.351     6.600     0.787     0.107     0.003     1.489     0.016     0.000     0.000 .00000E+00 0.000E+00 0.000E+00 0.000E+00
BIGSUB  11        0    4.24060E+04    57.529     0.000    88.662    34.543    43.376     0.000     3.844     0.352     4.209     0.324     0.435     0.050     0.024     0.001     0.093     0.013     0.000     0.000 .00000E+00 0.000E+00 0.000E+00 0.000E+00
BIGSUB  12        0    4.19770E+04    64.700     0.000    85.056    39.644   105.142     0.000    13.791     0.432    14.239     1.034     2.373     0.277     0.095     0.003     0.467     0.015     0.000     0.000 .00000E+00 0.000E+00 0.000E+00 0.000E+00
BIGSUB  13        0    4.16410E+04    57.529     0.000    88.783    32.214    38.348     0.000     6.058     0.751     6.816     0.400     0.677     0.078     0.036     0.001     0.145     0.007     0.000     0.000 .00000E+00 0.000E+00 0.000E+00 0.000E+00
BIGSUB  14        0    4.52740E+04    64.700     0.000    85.253    38.875   115.154     0.000    13.212     0.585    13.829     0.961     2.038     0.236     0.094     0.002     0.409     0.031     0.001     0.000 .00000E+00 0.000E+00 0.000E+00 0.000E+00
BIGSUB  15        0    4.42200E+03    57.529     0.000    88.895    33.268    43.171     0.000     4.443     0.740     5.191     0.230     0.389     0.045     0.028     0.001     0.084     0.008     0.000     0.000 .00000E+00 0.000E+00 0.000E+00 0.000E+00
BIGSUB  16        0    4.13850E+04    57.529     0.000    88.991    36.503    48.732     0.000     0.755     0.197     0.962     0.014     0.038     0.004     0.008     0.000     0.008     0.010     0.000     0.000 .00000E+00 0.000E+00 0.000E+00 0.000E+00
BIGSUB  17        0    4.17180E+04    64.700     0.000    85.453    35.716    87.034     0.695    24.172     0.693    24.871     1.040     2.666     0.311     0.156     0.005     0.581     0.006     0.000     0.000 .00000E+00 0.000E+00 0.000E+00 0.000E+00
BIGSUB  18        0    4.26090E+04    64.700     0.000    85.389    40.942   130.431     0.000     6.587     0.453     7.064     0.168     0.452     0.052     0.052     0.002     0.117     0.025     0.000     0.000 .00000E+00 0.000E+00 0.000E+00 0.000E+00
BIGSUB  19        0    4.25380E+04    64.700     0.000    85.581    39.576   119.972     2.176    14.185     0.614    14.876     1.601     2.213     0.253     0.102     0.003     0.464     0.077     0.001     0.000 .00000E+00 0.000E+00 0.000E+00 0.000E+00
BIGSUB  20        0    4.19820E+04    64.700     0.000    85.641    39.047   115.335     2.875    13.840     0.740    14.670     1.558     2.380     0.272     0.100     0.002     0.488     0.090     0.001     0.000 .00000E+00 0.000E+00 0.000E+00 0.000E+00
BIGSUB   1        0    5.12360E+04    14.600     0.000   160.727    40.559    62.332     0.000     0.054     0.219     0.328     0.000     0.013     0.002     0.001     0.000     0.003     0.055     0.000     0.000 .00000E+00 0.000E+00 0.000E+00 0.000E+00
BIGSUB   2        0    5.37400E+03    14.600     0.000   160.753    40.642    59.982     0.000     0.002     0.175     0.387     0.000     0.001     0.000     0.000     0.000     0.000     0.209     0.001     0.000 .00000E+00 0.000E+00 0.000E+00 0.000E+00
BIGSUB   3        0    5.14590E+04    14.600     0.000   160.727    41.496    61.080     0.000     0.005     0.181     0.264     0.000     0.001     0.000     0.000     0.000     0.000     0.078     0.001     0.000 .00000E+00 0.000E+00 0.000E+00 0.000E+00
BIGSUB   4        0    5.91800E+03    14.600     0.000   160.731    40.939    61.868     0.000     0.005     0.172     0.232     0.000     0.001     0.000     0.000     0.000     0.000     0.054     0.000     0.000 .00000E+00 0.000E+00 0.000E+00 0.000E+00
BIGSUB   5        0    5.37770E+04    14.600     0.000   160.773    41.109    56.936     0.000     0.082     0.343     0.475     0.000     0.007     0.001     0.001     0.000     0.001     0.050     0.000     0.000 .00000E+00 0.000E+00 0.000E+00 0.000E+00
BIGSUB   6        0    5.18250E+04    14.600     0.000   160.822    42.456    50.836     0.000     0.086     0.388     0.544     0.000     0.000     0.000     0.001     0.000     0.000     0.070     0.000     0.000 .00000E+00 0.000E+00 0.000E+00 0.000E+00
BIGSUB   7        0    5.14660E+04    14.600     0.000   160.827    35.330    41.689     0.000     0.701     0.546     1.253     0.000     0.107     0.013     0.008     0.000     0.024     0.007     0.000     0.000 .00000E+00 0.000E+00 0.000E+00 0.000E+00
BIGSUB   8        0    5.34940E+04    14.600     0.000   160.916    39.563    42.580     0.000     0.122     0.282     0.462     0.004     0.021     0.002     0.001     0.000     0.005     0.058     0.000     0.000 .00000E+00 0.000E+00 0.000E+00 0.000E+00
BIGSUB   9        0    5.47420E+04    22.800     0.000   152.008    44.615    49.357     0.000     1.491     0.203     1.734     0.478     0.738     0.087     0.012     0.000     0.160     0.041     0.000     0.000 .00000E+00 0.000E+00 0.000E+00 0.000E+00
BIGSUB  10        0    5.13380E+04    22.800     0.000   152.061    35.945    47.091     0.000     5.407     0.163     5.587     3.163     3.030     0.362     0.023     0.001     0.687     0.018     0.000     0.000 .00000E+00 0.000E+00 0.000E+00 0.000E+00
BIGSUB  11        0    5.24060E+04    42.426     0.000   127.176    33.802    49.623     0.000     1.965     0.357     2.338     0.296     0.269     0.031     0.008     0.000     0.059     0.016     0.000     0.000 .00000E+00 0.000E+00 0.000E+00 0.000E+00
BIGSUB  12        0    5.19770E+04     7.800     0.000   138.410    35.514    77.426     0.000     2.591     0.428     3.035     0.000     0.509     0.060     0.021     0.000     0.101     0.015     0.000     0.000 .00000E+00 0.000E+00 0.000E+00 0.000E+00
BIGSUB  13        0    5.16410E+04    42.426     0.000   127.208    29.874    47.035     0.000     3.128     0.745     3.880     0.353     0.406     0.047     0.014     0.000     0.089     0.007     0.000     0.000 .00000E+00 0.000E+00 0.000E+00 0.000E+00
BIGSUB  14        0    5.52740E+04     7.800     0.000   138.467    34.647    88.175     0.000     3.764     0.605     4.399     0.007     0.402     0.047     0.036     0.001     0.084     0.030     0.001     0.000 .00000E+00 0.000E+00 0.000E+00 0.000E+00
BIGSUB  15        0    5.42200E+03    42.426     0.000   127.236    31.536    51.209     0.000     2.568     0.729     3.306     0.216     0.276     0.032     0.010     0.000     0.061     0.009     0.000     0.000 .00000E+00 0.000E+00 0.000E+00 0.000E+00
BIGSUB  16        0    5.13850E+04    42.426     0.000   127.259    36.921    53.731     0.000     0.352     0.201     0.565     0.013     0.026     0.003     0.001     0.000     0.006     0.011     0.000     0.000 .00000E+00 0.000E+00 0.000E+00 0.000E+00
BIGSUB  17        0    5.17180E+04     7.800     0.000   138.520    28.760    65.657     0.000     5.403     0.725     6.134     0.003     0.448     0.052     0.062     0.001     0.098     0.006     0.000     0.000 .00000E+00 0.000E+00 0.000E+00 0.000E+00
BIGSUB  18        0    5.26090E+04     7.800     0.000   138.503    38.627    99.601     0.000     2.393     0.468     2.886     0.003     0.130     0.015     0.020     0.001     0.034     0.025     0.000     0.000 .00000E+00 0.000E+00 0.000E+00 0.000E+00
BIGSUB  19        0    5.25380E+04     7.800     0.000   138.552    36.202    91.546     0.000     0.794     0.633     1.480     0.000     0.081     0.009     0.007     0.000     0.018     0.053     0.001     0.000 .00000E+00 0.000E+00 0.000E+00 0.000E+00
BIGSUB  20        0    5.19820E+04     7.800     0.000   138.566    35.415    87.688     0.000     0.875     0.763     1.699     0.000     0.114     0.013     0.008     0.000     0.023     0.061     0.001     0.000 .00000E+00 0.000E+00 0.000E+00 0.000E+00
BIGSUB   1        0    6.12360E+04     3.200     0.000   209.138    65.529     0.000     0.000     0.000     0.198     0.228     0.000     0.000     0.000     0.000     0.000     0.000     0.031     0.000     0.000 .00000E+00 0.000E+00 0.000E+00 0.000E+00
BIGSUB   2        0    6.37400E+03     3.200     0.000   209.116    63.167     0.000     0.000     0.000     0.158     0.218     0.000     0.000     0.000     0.000     0.000     0.000     0.059     0.000     0.000 .00000E+00 0.000E+00 0.000E+00 0.000E+00
BIGSUB   3        0    6.14590E+04     3.200     0.000   209.138    64.275     0.000     0.000     0.000     0.163     0.216     0.000     0.000     0.000     0.000     0.000     0.000     0.053     0.000     0.000 .00000E+00 0.000E+00 0.000E+00 0.000E+00
BIGSUB   4        0    6.91800E+03     3.200     0.000   209.135    65.065     0.000     0.000     0.000     0.156     0.187     0.000     0.000     0.000     0.000     0.000     0.000     0.031     0.000     0.000 .00000E+00 0.000E+00 0.000E+00 0.000E+00
BIGSUB   5        0    6.37770E+04     3.200     0.000   209.098    60.133     0.000     0.000     0.000     0.309     0.342     0.000     0.000     0.000     0.000     0.000     0.000     0.032     0.000     0.000 .00000E+00 0.000E+00 0.000E+00 0.000E+00
BIGSUB   6        0    6.18250E+04     3.200     0.000   209.052    54.033     0.000     0.000     0.000     0.350     0.403     0.000     0.000     0.000     0.000     0.000     0.000     0.053     0.000     0.000 .00000E+00 0.000E+00 0.000E+00 0.000E+00
BIGSUB   7        0    6.14660E+04     3.200     0.000   209.048    44.889     0.000     0.000     0.000     0.499     0.506     0.000     0.000     0.000     0.000     0.000     0.000     0.007     0.000     0.000 .00000E+00 0.000E+00 0.000E+00 0.000E+00
BIGSUB   8        0    6.34940E+04     3.200     0.000   208.953    45.776     0.000     0.000     0.000     0.256     0.289     0.000     0.000     0.000     0.000     0.000     0.000     0.033     0.000     0.000 .00000E+00 0.000E+00 0.000E+00 0.000E+00
BIGSUB   9        0    6.47420E+04     0.000     0.000   194.207    43.316     6.041     0.000     0.000     0.190     0.213     0.000     0.000     0.000     0.000     0.000     0.000     0.023     0.000     0.000 .00000E+00 0.000E+00 0.000E+00 0.000E+00
BIGSUB  10        0    6.13380E+04     0.000     0.000   194.144    37.701     9.389     0.000     0.000     0.154     0.170     0.000     0.000     0.000     0.000     0.000     0.000     0.015     0.000     0.000 .00000E+00 0.000E+00 0.000E+00 0.000E+00
BIGSUB  11        0    6.24060E+04     0.000     0.000   163.238    47.612     2.011     0.000     0.170     0.332     0.518     0.000     0.022     0.002     0.000     0.000     0.005     0.016     0.000     0.000 .00000E+00 0.000E+00 0.000E+00 0.000E+00
BIGSUB  12        0    6.19770E+04     0.000     0.000   178.358    48.288    29.138     0.000     0.000     0.386     0.399     0.000     0.000     0.000     0.000     0.000     0.000     0.013     0.000     0.000 .00000E+00 0.000E+00 0.000E+00 0.000E+00
BIGSUB  13        0    6.16410E+04     0.000     0.000   163.194    43.881     3.154     0.000     0.429     0.684     1.120     0.000     0.057     0.007     0.001     0.000     0.013     0.007     0.000     0.000 .00000E+00 0.000E+00 0.000E+00 0.000E+00
BIGSUB  14        0    6.52740E+04     0.000     0.000   178.273    44.991    43.184     0.000     0.000     0.549     0.573     0.000     0.000     0.000     0.000     0.000     0.000     0.025     0.000     0.000 .00000E+00 0.000E+00 0.000E+00 0.000E+00
BIGSUB  15        0    6.42200E+03     0.000     0.000   163.150    45.175     6.035     0.000     0.046     0.667     0.722     0.000     0.005     0.001     0.000     0.000     0.001     0.009     0.000     0.000 .00000E+00 0.000E+00 0.000E+00 0.000E+00
BIGSUB  16        0    6.13850E+04     0.000     0.000   163.112    50.013     3.718     0.000     0.040     0.187     0.239     0.000     0.002     0.000     0.000     0.000     0.001     0.011     0.000     0.000 .00000E+00 0.000E+00 0.000E+00 0.000E+00
BIGSUB  17        0    6.17180E+04     0.000     0.000   178.180    42.518    23.139     0.000     0.000     0.662     0.668     0.000     0.000     0.000     0.000     0.000     0.000     0.006     0.000     0.000 .00000E+00 0.000E+00 0.000E+00 0.000E+00
BIGSUB  18        0    6.26090E+04     0.000     0.000   178.211    46.476    53.125     0.000     0.000     0.422     0.443     0.000     0.000     0.000     0.000     0.000     0.000     0.021     0.000     0.000 .00000E+00 0.000E+00 0.000E+00 0.000E+00
BIGSUB  19        0    6.25380E+04     0.000     0.000   178.116    45.484    46.062     0.000     0.000     0.571     0.599     0.000     0.000     0.000     0.000     0.000     0.000     0.028     0.000     0.000 .00000E+00 0.000E+00 0.000E+00 0.000E+00
BIGSUB  20        0    6.19820E+04     0.000     0.000   178.086    45.093    42.595     0.000     0.000     0.688     0.719     0.000     0.000     0.000     0.000     0.000     0.000     0.031     0.000     0.000 .00000E+00 0.000E+00 0.000E+00 0.000E+00
BIGSUB   1        0    7.12360E+04     0.000     0.000   212.019     0.000     0.000     0.000     0.000     0.190     0.210     0.000     0.000     0.000     0.000     0.000     0.000     0.020     0.000     0.000 .00000E+00 0.000E+00 0.000E+00 0.000E+00
BIGSUB   2        0    7.37400E+03     0.000     0.000   212.020     0.000     0.000     0.000     0.000     0.152     0.186     0.000     0.000     0.000     0.000     0.000     0.000     0.034     0.000     0.000 .00000E+00 0.000E+00 0.000E+00 0.000E+00
BIGSUB   3        0    7.14590E+04     0.000     0.000   212.019     0.000     0.000     0.000     0.000     0.157     0.197     0.000     0.000     0.000     0.000     0.000     0.000     0.041     0.000     0.000 .00000E+00 0.000E+00 0.000E+00 0.000E+00
BIGSUB   4        0    7.91800E+03     0.000     0.000   212.019     0.000     0.000     0.000     0.000     0.150     0.171     0.000     0.000     0.000     0.000     0.000     0.000     0.021     0.000     0.000 .00000E+00 0.000E+00 0.000E+00 0.000E+00
BIGSUB   5        0    7.37770E+04     0.000     0.000   212.020     0.000     0.000     0.000     0.000     0.298     0.321     0.000     0.000     0.000     0.000     0.000     0.000     0.024     0.000     0.000 .00000E+00 0.000E+00 0.000E+00 0.000E+00
BIGSUB   6        0    7.18250E+04     0.000     0.000   212.020     0.000     0.000     0.000     0.000     0.336     0.379     0.000     0.000     0.000     0.000     0.000     0.000     0.043     0.000     0.000 .00000E+00 0.000E+00 0.000E+00 0.000E+00
BIGSUB   7        0    7.14660E+04     0.000     0.000   212.020     0.000     0.000     0.000     0.000     0.480     0.486     0.000     0.000     0.000     0.000     0.000     0.000     0.006     0.000     0.000 .00000E+00 0.000E+00 0.000E+00 0.000E+00
BIGSUB   8        0    7.34940E+04     0.000     0.000   212.012     0.000     0.000     0.000     0.000     0.246     0.268     0.000     0.000     0.000     0.000     0.000     0.000     0.022     0.000     0.000 .00000E+00 0.000E+00 0.000E+00 0.000E+00
BIGSUB   9        0    7.47420E+04     1.000     0.000   196.409     7.042     0.000     0.000     0.000     0.183     0.196     0.000     0.000     0.000     0.000     0.000     0.000     0.013     0.000     0.000 .00000E+00 0.000E+00 0.000E+00 0.000E+00
BIGSUB  10        0    7.13380E+04     1.000     0.000   196.401    10.390     0.000     0.000     0.000     0.148     0.162     0.000     0.000     0.000     0.000     0.000     0.000     0.014     0.000     0.000 .00000E+00 0.000E+00 0.000E+00 0.000E+00
BIGSUB  11        0    7.24060E+04     9.668     0.000   180.777    11.675     0.000     0.000     0.000     0.320     0.334     0.000     0.000     0.000     0.000     0.000     0.000     0.014     0.000     0.000 .00000E+00 0.000E+00 0.000E+00 0.000E+00
BIGSUB  12        0    7.19770E+04     0.200     0.000   186.728    29.338     0.000     0.000     0.000     0.371     0.383     0.000     0.000     0.000     0.000     0.000     0.000     0.012     0.000     0.000 .00000E+00 0.000E+00 0.000E+00 0.000E+00
BIGSUB  13        0    7.16410E+04     9.668     0.000   180.767    12.821     0.000     0.000     0.000     0.658     0.665     0.000     0.000     0.000     0.000     0.000     0.000     0.007     0.000     0.000 .00000E+00 0.000E+00 0.000E+00 0.000E+00
BIGSUB  14        0    7.52740E+04     0.200     0.000   186.711    43.384     0.000     0.000     0.000     0.527     0.549     0.000     0.000     0.000     0.000     0.000     0.000     0.022     0.000     0.000 .00000E+00 0.000E+00 0.000E+00 0.000E+00
BIGSUB  15        0    7.42200E+03     9.668     0.000   180.756    15.701     0.000     0.000     0.000     0.641     0.650     0.000     0.000     0.000     0.000     0.000     0.000     0.008     0.000     0.000 .00000E+00 0.000E+00 0.000E+00 0.000E+00
BIGSUB  16        0    7.13850E+04     9.668     0.000   180.745    13.384     0.000     0.000     0.000     0.180     0.190     0.000     0.000     0.000     0.000     0.000     0.000     0.010     0.000     0.000 .00000E+00 0.000E+00 0.000E+00 0.000E+00
BIGSUB  17        0    7.17180E+04     0.200     0.000   186.687    23.339     0.000     0.000     0.000     0.637     0.642     0.000     0.000     0.000     0.000     0.000     0.000     0.005     0.000     0.000 .00000E+00 0.000E+00 0.000E+00 0.000E+00
BIGSUB  18        0    7.26090E+04     0.200     0.000   186.696    53.325     0.000     0.000     0.000     0.406     0.424     0.000     0.000     0.000     0.000     0.000     0.000     0.019     0.000     0.000 .00000E+00 0.000E+00 0.000E+00 0.000E+00
BIGSUB  19        0    7.25380E+04     0.200     0.000   186.668    46.262     0.000     0.000     0.000     0.549     0.566     0.000     0.000     0.000     0.000     0.000     0.000     0.017     0.000     0.000 .00000E+00 0.000E+00 0.000E+00 0.000E+00
BIGSUB  20        0    7.19820E+04     0.200     0.000   186.659    42.795     0.000     0.000     0.000     0.662     0.680     0.000     0.000     0.000     0.000     0.000     0.000     0.018     0.000     0.000 .00000E+00 0.000E+00 0.000E+00 0.000E+00
BIGSUB   1        0    8.12360E+04     0.000     0.000   189.929     0.000     0.000     0.000     0.000     0.177     0.189     0.000     0.000     0.000     0.000     0.000     0.000     0.013     0.000     0.000 .00000E+00 0.000E+00 0.000E+00 0.000E+00
BIGSUB   2        0    8.37400E+03     0.000     0.000   190.021     0.000     0.000     0.000     0.000     0.141     0.161     0.000     0.000     0.000     0.000     0.000     0.000     0.020     0.000     0.000 .00000E+00 0.000E+00 0.000E+00 0.000E+00
BIGSUB   3        0    8.14590E+04     0.000     0.000   189.927     0.000     0.000     0.000     0.000     0.146     0.177     0.000     0.000     0.000     0.000     0.000     0.000     0.031     0.000     0.000 .00000E+00 0.000E+00 0.000E+00 0.000E+00
BIGSUB   4        0    8.91800E+03     0.000     0.000   189.943     0.000     0.000     0.000     0.000     0.139     0.153     0.000     0.000     0.000     0.000     0.000     0.000     0.014     0.000     0.000 .00000E+00 0.000E+00 0.000E+00 0.000E+00
BIGSUB   5        0    8.37770E+04     0.000     0.000   190.092     0.000     0.000     0.000     0.000     0.277     0.294     0.000     0.000     0.000     0.000     0.000     0.000     0.017     0.000     0.000 .00000E+00 0.000E+00 0.000E+00 0.000E+00
BIGSUB   6        0    8.18250E+04     0.000     0.000   190.268     0.000     0.000     0.000     0.000     0.312     0.345     0.000     0.000     0.000     0.000     0.000     0.000     0.033     0.000     0.000 .00000E+00 0.000E+00 0.000E+00 0.000E+00
BIGSUB   7        0    8.14660E+04     0.000     0.000   190.284     0.000     0.000     0.000     0.000     0.446     0.452     0.000     0.000     0.000     0.000     0.000     0.000     0.006     0.000     0.000 .00000E+00 0.000E+00 0.000E+00 0.000E+00
BIGSUB   8        0    8.34940E+04     0.000     0.000   190.617     0.000     0.000     0.000     0.000     0.229     0.243     0.000     0.000     0.000     0.000     0.000     0.000     0.014     0.000     0.000 .00000E+00 0.000E+00 0.000E+00 0.000E+00
BIGSUB   9        0    8.47420E+04     0.500     0.000   187.150     0.500     0.000     0.000     0.000     0.170     0.178     0.000     0.000     0.000     0.000     0.000     0.000     0.008     0.000     0.000 .00000E+00 0.000E+00 0.000E+00 0.000E+00
BIGSUB  10        0    8.13380E+04     0.500     0.000   187.362     0.500     0.000     0.000     0.000     0.138     0.150     0.000     0.000     0.000     0.000     0.000     0.000     0.012     0.000     0.000 .00000E+00 0.000E+00 0.000E+00 0.000E+00
BIGSUB  11        0    8.24060E+04     0.000     0.000   176.056     0.000     0.000     0.000     0.000     0.297     0.310     0.000     0.000     0.000     0.000     0.000     0.000     0.012     0.000     0.000 .00000E+00 0.000E+00 0.000E+00 0.000E+00
BIGSUB  12        0    8.19770E+04     0.000     0.000   180.679     0.000     0.000     0.000     0.000     0.345     0.355     0.000     0.000     0.000     0.000     0.000     0.000     0.010     0.000     0.000 .00000E+00 0.000E+00 0.000E+00 0.000E+00
BIGSUB  13        0    8.16410E+04     0.000     0.000   176.210     0.000     0.000     0.000     0.000     0.612     0.618     0.000     0.000     0.000     0.000     0.000     0.000     0.006     0.000     0.000 .00000E+00 0.000E+00 0.000E+00 0.000E+00
BIGSUB  14        0    8.52740E+04     0.000     0.000   180.945     0.000     0.000     0.000     0.000     0.490     0.508     0.000     0.000     0.000     0.000     0.000     0.000     0.018     0.000     0.000 .00000E+00 0.000E+00 0.000E+00 0.000E+00
BIGSUB  15        0    8.42200E+03     0.000     0.000   176.352     0.000     0.000     0.000     0.000     0.596     0.603     0.000     0.000     0.000     0.000     0.000     0.000     0.007     0.000     0.000 .00000E+00 0.000E+00 0.000E+00 0.000E+00
BIGSUB  16        0    8.13850E+04     0.000     0.000   176.472     0.000     0.000     0.000     0.000     0.167     0.176     0.000     0.000     0.000     0.000     0.000     0.000     0.009     0.000     0.000 .00000E+00 0.000E+00 0.000E+00 0.000E+00
BIGSUB  17        0    8.17180E+04     0.000     0.000   181.211     0.000     0.000     0.000     0.000     0.592     0.597     0.000     0.000     0.000     0.000     0.000     0.000     0.005     0.000     0.000 .00000E+00 0.000E+00 0.000E+00 0.000E+00
BIGSUB  18        0    8.26090E+04     0.000     0.000   181.126     0.000     0.000     0.000     0.000     0.377     0.393     0.000     0.000     0.000     0.000     0.000     0.000     0.016     0.000     0.000 .00000E+00 0.000E+00 0.000E+00 0.000E+00
BIGSUB  19        0    8.25380E+04     0.000     0.000   181.382     0.000     0.000     0.000     0.000     0.510     0.521     0.000     0.000     0.000     0.000     0.000     0.000     0.010     0.000     0.000 .00000E+00 0.000E+00 0.000E+00 0.000E+00
BIGSUB  20        0    8.19820E+04     0.000     0.000   181.460     0.000     0.000     0.000     0.000     0.615     0.626     0.000     0.000     0.000     0.000     0.000     0.000     0.011     0.000     0.000 .00000E+00 0.000E+00 0.000E+00 0.000E+00
BIGSUB   1        0    9.12360E+04     0.000     0.000   154.252     0.000     0.000     0.000     0.000     0.159     0.168     0.000     0.000     0.000     0.000     0.000     0.000     0.009     0.000     0.000 .00000E+00 0.000E+00 0.000E+00 0.000E+00
BIGSUB   2        0    9.37400E+03     0.000     0.000   154.449     0.000     0.000     0.000     0.000     0.127     0.143     0.000     0.000     0.000     0.000     0.000     0.000     0.016     0.000     0.000 .00000E+00 0.000E+00 0.000E+00 0.000E+00
BIGSUB   3        0    9.14590E+04     0.000     0.000   154.247     0.000     0.000     0.000     0.000     0.131     0.156     0.000     0.000     0.000     0.000     0.000     0.000     0.025     0.000     0.000 .00000E+00 0.000E+00 0.000E+00 0.000E+00
BIGSUB   4        0    9.91800E+03     0.000     0.000   154.282     0.000     0.000     0.000     0.000     0.125     0.136     0.000     0.000     0.000     0.000     0.000     0.000     0.010     0.000     0.000 .00000E+00 0.000E+00 0.000E+00 0.000E+00
BIGSUB   5        0    9.37770E+04     0.000     0.000   154.602     0.000     0.000     0.000     0.000     0.249     0.262     0.000     0.000     0.000     0.000     0.000     0.000     0.013     0.000     0.000 .00000E+00 0.000E+00 0.000E+00 0.000E+00
BIGSUB   6        0    9.18250E+04     0.000     0.000   154.982     0.000     0.000     0.000     0.000     0.281     0.306     0.000     0.000     0.000     0.000     0.000     0.000     0.024     0.000     0.000 .00000E+00 0.000E+00 0.000E+00 0.000E+00
BIGSUB   7        0    9.14660E+04     0.000     0.000   155.018     0.000     0.000     0.000     0.000     0.402     0.407     0.000     0.000     0.000     0.000     0.000     0.000     0.005     0.000     0.000 .00000E+00 0.000E+00 0.000E+00 0.000E+00
BIGSUB   8        0    9.34940E+04     0.000     0.000   155.749     0.000     0.000     0.000     0.000     0.206     0.216     0.000     0.000     0.000     0.000     0.000     0.000     0.010     0.000     0.000 .00000E+00 0.000E+00 0.000E+00 0.000E+00
BIGSUB   9        0    9.47420E+04     0.000     0.000   151.075     0.000     0.000     0.000     0.000     0.153     0.159     0.000     0.000     0.000     0.000     0.000     0.000     0.006     0.000     0.000 .00000E+00 0.000E+00 0.000E+00 0.000E+00
BIGSUB  10        0    9.13380E+04     0.000     0.000   151.541     0.000     0.000     0.000     0.000     0.124     0.135     0.000     0.000     0.000     0.000     0.000     0.000     0.010     0.000     0.000 .00000E+00 0.000E+00 0.000E+00 0.000E+00
BIGSUB  11        0    9.24060E+04     1.380     0.000   121.829     1.380     0.000     0.000     0.000     0.268     0.278     0.000     0.000     0.000     0.000     0.000     0.000     0.010     0.000     0.000 .00000E+00 0.000E+00 0.000E+00 0.000E+00
BIGSUB  12        0    9.19770E+04     0.000     0.000   137.300     0.000     0.000     0.000     0.000     0.310     0.319     0.000     0.000     0.000     0.000     0.000     0.000     0.009     0.000     0.000 .00000E+00 0.000E+00 0.000E+00 0.000E+00
BIGSUB  13        0    9.16410E+04     1.380     0.000   122.115     1.380     0.000     0.000     0.000     0.551     0.557     0.000     0.000     0.000     0.000     0.000     0.000     0.006     0.000     0.000 .00000E+00 0.000E+00 0.000E+00 0.000E+00
BIGSUB  14        0    9.52740E+04     0.000     0.000   137.661     0.000     0.000     0.000     0.000     0.441     0.456     0.000     0.000     0.000     0.000     0.000     0.000     0.015     0.000     0.000 .00000E+00 0.000E+00 0.000E+00 0.000E+00
BIGSUB  15        0    9.42200E+03     1.380     0.000   122.381     1.380     0.000     0.000     0.000     0.537     0.543     0.000     0.000     0.000     0.000     0.000     0.000     0.006     0.000     0.000 .00000E+00 0.000E+00 0.000E+00 0.000E+00
BIGSUB  16        0    9.13850E+04     1.380     0.000   122.608     1.380     0.000     0.000     0.000     0.151     0.158     0.000     0.000     0.000     0.000     0.000     0.000     0.008     0.000     0.000 .00000E+00 0.000E+00 0.000E+00 0.000E+00
BIGSUB  17        0    9.17180E+04     0.000     0.000   138.230     0.000     0.000     0.000     0.000     0.533     0.537     0.000     0.000     0.000     0.000     0.000     0.000     0.004     0.000     0.000 .00000E+00 0.000E+00 0.000E+00 0.000E+00
BIGSUB  18        0    9.26090E+04     0.000     0.000   138.047     0.000     0.000     0.000     0.000     0.340     0.353     0.000     0.000     0.000     0.000     0.000     0.000     0.014     0.000     0.000 .00000E+00 0.000E+00 0.000E+00 0.000E+00
BIGSUB  19        0    9.25380E+04     0.000     0.000   138.599     0.000     0.000     0.000     0.000     0.460     0.467     0.000     0.000     0.000     0.000     0.000     0.000     0.007     0.000     0.000 .00000E+00 0.000E+00 0.000E+00 0.000E+00
BIGSUB  20        0    9.19820E+04     0.000     0.000   138.769     0.000     0.000     0.000     0.000     0.554     0.561     0.000     0.000     0.000     0.000     0.000     0.000     0.007     0.000     0.000 .00000E+00 0.000E+00 0.000E+00 0.000E+00
BIGSUB   1        0   10.12360E+04    17.900     0.000    88.216     9.205     8.672     0.000     0.000     0.153     0.166     0.000     0.000     0.000     0.000     0.000     0.000     0.013     0.000     0.000 .00000E+00 0.000E+00 0.000E+00 0.000E+00
BIGSUB   2        0   10.37400E+03    17.900     0.000    88.421     9.222     8.575     0.000     0.000     0.122     0.193     0.000     0.000     0.000     0.000     0.000     0.000     0.071     0.000     0.000 .00000E+00 0.000E+00 0.000E+00 0.000E+00
BIGSUB   3        0   10.14590E+04    17.900     0.000    88.212     9.237     8.630     0.000     0.000     0.126     0.154     0.000     0.000     0.000     0.000     0.000     0.000     0.027     0.000     0.000 .00000E+00 0.000E+00 0.000E+00 0.000E+00
BIGSUB   4        0   10.91800E+03    17.900     0.000    88.247     9.220     8.658     0.000     0.000     0.120     0.135     0.000     0.000     0.000     0.000     0.000     0.000     0.014     0.000     0.000 .00000E+00 0.000E+00 0.000E+00 0.000E+00
BIGSUB   5        0   10.37770E+04    17.900     0.000    88.580     9.288     8.591     0.000     0.000     0.239     0.254     0.000     0.000     0.000     0.000     0.000     0.000     0.015     0.000     0.000 .00000E+00 0.000E+00 0.000E+00 0.000E+00
BIGSUB   6        0   10.18250E+04    17.900     0.000    88.976     9.390     8.482     0.000     0.000     0.271     0.294     0.000     0.000     0.000     0.000     0.000     0.000     0.023     0.000     0.000 .00000E+00 0.000E+00 0.000E+00 0.000E+00
BIGSUB   7        0   10.14660E+04    17.900     0.000    89.013     9.184     8.711     0.000     0.000     0.387     0.391     0.000     0.000     0.000     0.000     0.000     0.000     0.005     0.000     0.000 .00000E+00 0.000E+00 0.000E+00 0.000E+00
BIGSUB   8        0   10.34940E+04    17.900     0.000    89.777     9.242     8.633     0.000     0.000     0.198     0.213     0.000     0.000     0.000     0.000     0.000     0.000     0.014     0.000     0.000 .00000E+00 0.000E+00 0.000E+00 0.000E+00
BIGSUB   9        0   10.47420E+04    20.400     0.000    81.612     9.998    10.380     0.000     0.000     0.147     0.155     0.000     0.000     0.000     0.000     0.000     0.000     0.008     0.000     0.000 .00000E+00 0.000E+00 0.000E+00 0.000E+00
BIGSUB  10        0   10.13380E+04    20.400     0.000    82.069     9.650    10.736     0.000     0.000     0.119     0.129     0.000     0.000     0.000     0.000     0.000     0.000     0.010     0.000     0.000 .00000E+00 0.000E+00 0.000E+00 0.000E+00
BIGSUB  11        0   10.24060E+04    19.432     0.000    65.404    12.209     7.211     0.000     0.000     0.257     0.267     0.000     0.000     0.000     0.000     0.000     0.000     0.010     0.000     0.000 .00000E+00 0.000E+00 0.000E+00 0.000E+00
BIGSUB  12        0   10.19770E+04    18.400     0.000    73.005     6.300    12.092     0.000     0.000     0.299     0.307     0.000     0.000     0.000     0.000     0.000     0.000     0.008     0.000     0.000 .00000E+00 0.000E+00 0.000E+00 0.000E+00
BIGSUB  13        0   10.16410E+04    19.432     0.000    65.694    11.937     7.490     0.000     0.000     0.530     0.535     0.000     0.000     0.000     0.000     0.000     0.000     0.006     0.000     0.000 .00000E+00 0.000E+00 0.000E+00 0.000E+00
BIGSUB  14        0   10.52740E+04    18.400     0.000    73.547     6.619    11.767     0.000     0.000     0.424     0.438     0.000     0.000     0.000     0.000     0.000     0.000     0.013     0.000     0.000 .00000E+00 0.000E+00 0.000E+00 0.000E+00
BIGSUB  15        0   10.42200E+03    19.432     0.000    65.964    12.206     7.219     0.000     0.000     0.516     0.522     0.000     0.000     0.000     0.000     0.000     0.000     0.006     0.000     0.000 .00000E+00 0.000E+00 0.000E+00 0.000E+00
BIGSUB  16        0   10.13850E+04    19.432     0.000    66.195    12.602     6.822     0.000     0.000     0.145     0.152     0.000     0.000     0.000     0.000     0.000     0.000     0.007     0.000     0.000 .00000E+00 0.000E+00 0.000E+00 0.000E+00
BIGSUB  17        0   10.17180E+04    18.400     0.000    74.101     6.847    11.550     0.000     0.000     0.513     0.517     0.000     0.000     0.000     0.000     0.000     0.000     0.004     0.000     0.000 .00000E+00 0.000E+00 0.000E+00 0.000E+00
BIGSUB  18        0   10.26090E+04    18.400     0.000    73.922     6.579    11.810     0.000     0.000     0.327     0.339     0.000     0.000     0.000     0.000     0.000     0.000     0.012     0.000     0.000 .00000E+00 0.000E+00 0.000E+00 0.000E+00
BIGSUB  19        0   10.25380E+04    18.400     0.000    74.462     6.733    11.646     0.000     0.000     0.442     0.450     0.000     0.000     0.000     0.000     0.000     0.000     0.008     0.000     0.000 .00000E+00 0.000E+00 0.000E+00 0.000E+00
BIGSUB  20        0   10.19820E+04    18.400     0.000    74.629     6.779    11.597     0.000     0.000     0.533     0.541     0.000     0.000     0.000     0.000     0.000     0.000     0.008     0.000     0.000 .00000E+00 0.000E+00 0.000E+00 0.000E+00
BIGSUB   1        0   11.12360E+04    13.000     0.000    54.578     7.510    14.142     0.000     0.000     0.138     0.157     0.000     0.000     0.000     0.000     0.000     0.000     0.020     0.000     0.000 .00000E+00 0.000E+00 0.000E+00 0.000E+00
BIGSUB   2        0   11.37400E+03    13.000     0.000    54.774     7.434    14.046     0.000     0.000     0.110     0.216     0.000     0.000     0.000     0.000     0.000     0.000     0.106     0.000     0.000 .00000E+00 0.000E+00 0.000E+00 0.000E+00
BIGSUB   3        0   11.14590E+04    13.000     0.000    54.573     7.319    14.281     0.000     0.000     0.113     0.146     0.000     0.000     0.000     0.000     0.000     0.000     0.032     0.000     0.000 .00000E+00 0.000E+00 0.000E+00 0.000E+00
BIGSUB   4        0   11.91800E+03    13.000     0.000    54.607     7.437    14.200     0.000     0.000     0.108     0.129     0.000     0.000     0.000     0.000     0.000     0.000     0.020     0.000     0.000 .00000E+00 0.000E+00 0.000E+00 0.000E+00
BIGSUB   5        0   11.37770E+04    13.000     0.000    54.927     7.361    14.211     0.000     0.000     0.216     0.234     0.000     0.000     0.000     0.000     0.000     0.000     0.018     0.000     0.000 .00000E+00 0.000E+00 0.000E+00 0.000E+00
BIGSUB   6        0   11.18250E+04    13.000     0.000    55.309     7.306    14.148     0.000     0.000     0.244     0.268     0.000     0.000     0.000     0.000     0.000     0.000     0.024     0.000     0.000 .00000E+00 0.000E+00 0.000E+00 0.000E+00
BIGSUB   7        0   11.14660E+04    13.000     0.000    55.344     8.653    13.038     0.000     0.009     0.348     0.362     0.000     0.000     0.000     0.000     0.000     0.000     0.005     0.000     0.000 .00000E+00 0.000E+00 0.000E+00 0.000E+00
BIGSUB   8        0   11.34940E+04    13.000     0.000    56.082     8.409    13.195     0.000     0.002     0.179     0.201     0.000     0.000     0.000     0.000     0.000     0.000     0.021     0.000     0.000 .00000E+00 0.000E+00 0.000E+00 0.000E+00
BIGSUB   9        0   11.47420E+04     0.800     0.000    51.550    11.180     0.000     0.000     0.000     0.132     0.144     0.000     0.000     0.000     0.000     0.000     0.000     0.012     0.000     0.000 .00000E+00 0.000E+00 0.000E+00 0.000E+00
BIGSUB  10        0   11.13380E+04     0.800     0.000    52.001    11.536     0.000     0.000     0.000     0.107     0.117     0.000     0.000     0.000     0.000     0.000     0.000     0.010     0.000     0.000 .00000E+00 0.000E+00 0.000E+00 0.000E+00
BIGSUB  11        0   11.24060E+04   110.416    10.535    36.286    29.448    78.309     0.000     8.868     0.269     9.156     0.163     0.268     0.031     0.022     0.001     0.060     0.019     0.000     0.000 .00000E+00 0.000E+00 0.000E+00 0.000E+00
BIGSUB  12        0   11.19770E+04     6.000     0.000    44.945    13.840     4.250     0.000     0.000     0.269     0.277     0.000     0.000     0.000     0.000     0.000     0.000     0.008     0.000     0.000 .00000E+00 0.000E+00 0.000E+00 0.000E+00
BIGSUB  13        0   11.16410E+04   110.416    10.535    36.535    29.054    74.765     0.000    12.695     0.524    13.227     0.159     0.328     0.039     0.032     0.002     0.073     0.008     0.000     0.000 .00000E+00 0.000E+00 0.000E+00 0.000E+00
BIGSUB  14        0   11.52740E+04     6.000     0.000    45.466    14.596     3.167     0.000     0.000     0.382     0.396     0.000     0.000     0.000     0.000     0.000     0.000     0.013     0.000     0.000 .00000E+00 0.000E+00 0.000E+00 0.000E+00
BIGSUB  15        0   11.42200E+03   110.416    10.535    36.767    29.510    77.976     0.000     9.341     0.493     9.844     0.091     0.162     0.019     0.023     0.001     0.036     0.011     0.000     0.000 .00000E+00 0.000E+00 0.000E+00 0.000E+00
BIGSUB  16        0   11.13850E+04   110.416    10.535    36.967    30.449    82.735     0.000     3.455     0.157     3.626     0.026     0.061     0.007     0.009     0.001     0.015     0.014     0.000     0.000 .00000E+00 0.000E+00 0.000E+00 0.000E+00
BIGSUB  17        0   11.17180E+04     6.000     0.000    46.001    13.556     3.993     0.000     0.000     0.462     0.466     0.000     0.000     0.000     0.000     0.000     0.000     0.004     0.000     0.000 .00000E+00 0.000E+00 0.000E+00 0.000E+00
BIGSUB  18        0   11.26090E+04     6.000     0.000    45.828    15.343     2.464     0.000     0.000     0.294     0.306     0.000     0.000     0.000     0.000     0.000     0.000     0.012     0.000     0.000 .00000E+00 0.000E+00 0.000E+00 0.000E+00
BIGSUB  19        0   11.25380E+04     6.000     0.000    46.349    14.970     2.669     0.000     0.000     0.398     0.413     0.000     0.000     0.000     0.000     0.000     0.000     0.015     0.000     0.000 .00000E+00 0.000E+00 0.000E+00 0.000E+00
BIGSUB  20        0   11.19820E+04     6.000     0.000    46.511    14.793     2.796     0.000     0.000     0.480     0.497     0.000     0.000     0.000     0.000     0.000     0.000     0.018     0.000     0.000 .00000E+00 0.000E+00 0.000E+00 0.000E+00
BIGSUB   1        0   12.12360E+04    39.000     0.000    27.257     7.551    34.476     0.000     0.032     0.133     0.193     0.000     0.000     0.000     0.000     0.000     0.000     0.028     0.000     0.000 .00000E+00 0.000E+00 0.000E+00 0.000E+00
BIGSUB   2        0   12.37400E+03    39.000     0.000    27.379     7.390    34.381     0.000     0.022     0.107     0.289     0.000     0.000     0.000     0.000     0.000     0.000     0.160     0.000     0.000 .00000E+00 0.000E+00 0.000E+00 0.000E+00
BIGSUB   3        0   12.14590E+04    39.000     0.000    27.255     7.128    35.039     0.000     0.018     0.110     0.168     0.000     0.000     0.000     0.000     0.000     0.000     0.041     0.000     0.000 .00000E+00 0.000E+00 0.000E+00 0.000E+00
BIGSUB   4        0   12.91800E+03    39.000     0.000    27.276     7.386    34.709     0.000     0.026     0.105     0.159     0.000     0.000     0.000     0.000     0.000     0.000     0.028     0.000     0.000 .00000E+00 0.000E+00 0.000E+00 0.000E+00
BIGSUB   5        0   12.37770E+04    39.000     0.000    27.473     7.172    34.861     0.000     0.069     0.209     0.302     0.000     0.000     0.000     0.001     0.000     0.000     0.024     0.000     0.000 .00000E+00 0.000E+00 0.000E+00 0.000E+00
BIGSUB   6        0   12.18250E+04    39.000     0.000    27.709     6.961    34.914     0.000     0.139     0.236     0.404     0.044     0.017     0.002     0.001     0.000     0.004     0.030     0.000     0.000 .00000E+00 0.000E+00 0.000E+00 0.000E+00
BIGSUB   7        0   12.14660E+04    39.000     0.000    27.731     8.846    30.643     0.000     1.337     0.341     1.683     0.018     0.052     0.006     0.005     0.000     0.012     0.005     0.000     0.000 .00000E+00 0.000E+00 0.000E+00 0.000E+00
BIGSUB   8        0   12.34940E+04    39.000     0.000    28.187     8.648    31.786     0.000     0.630     0.174     0.833     0.046     0.041     0.005     0.003     0.000     0.009     0.029     0.000     0.000 .00000E+00 0.000E+00 0.000E+00 0.000E+00
BIGSUB   9        0   12.47420E+04    15.300     0.100    28.129     3.273     1.627     0.000     0.000     0.127     0.135     0.000     0.000     0.000     0.000     0.000     0.000     0.008     0.000     0.000 .00000E+00 0.000E+00 0.000E+00 0.000E+00
BIGSUB  10        0   12.13380E+04    15.300     0.100    28.431     3.326     1.574     0.000     0.000     0.103     0.112     0.000     0.000     0.000     0.000     0.000     0.000     0.009     0.000     0.000 .00000E+00 0.000E+00 0.000E+00 0.000E+00
BIGSUB  11        0   12.24060E+04    22.312    16.670    21.931    16.262    75.916     0.000     8.206     0.284     8.513     0.183     0.339     0.039     0.044     0.001     0.074     0.023     0.000     0.000 .00000E+00 0.000E+00 0.000E+00 0.000E+00
BIGSUB  12        0   12.19770E+04    20.900     1.500    24.144     6.150     1.000     0.000     0.000     0.259     0.266     0.000     0.000     0.000     0.000     0.000     0.000     0.007     0.000     0.000 .00000E+00 0.000E+00 0.000E+00 0.000E+00
BIGSUB  13        0   12.16410E+04    22.312    16.667    22.113    15.778    72.837     0.000     8.212     0.549     8.770     0.135     0.270     0.032     0.042     0.001     0.058     0.009     0.000     0.000 .00000E+00 0.000E+00 0.000E+00 0.000E+00
BIGSUB  14        0   12.52740E+04    20.900     1.500    24.488     5.271     0.795     0.000     0.000     0.368     0.379     0.000     0.000     0.000     0.000     0.000     0.000     0.012     0.000     0.000 .00000E+00 0.000E+00 0.000E+00 0.000E+00
BIGSUB  15        0   12.42200E+03    22.312    16.664    22.284    16.164    75.690     0.000     8.280     0.498     8.791     0.132     0.235     0.027     0.043     0.001     0.051     0.013     0.000     0.000 .00000E+00 0.000E+00 0.000E+00 0.000E+00
BIGSUB  16        0   12.13850E+04    22.312    16.662    22.431    17.065    79.759     0.000     8.019     0.161     8.196     0.088     0.206     0.024     0.044     0.001     0.051     0.016     0.000     0.000 .00000E+00 0.000E+00 0.000E+00 0.000E+00
BIGSUB  17        0   12.17180E+04    20.900     1.500    24.842     6.503     0.389     0.000     0.000     0.444     0.448     0.000     0.000     0.000     0.000     0.000     0.000     0.004     0.000     0.000 .00000E+00 0.000E+00 0.000E+00 0.000E+00
BIGSUB  18        0   12.26090E+04    20.900     1.500    24.728     4.384     0.980     0.000     0.000     0.283     0.294     0.000     0.000     0.000     0.000     0.000     0.000     0.011     0.000     0.000 .00000E+00 0.000E+00 0.000E+00 0.000E+00
BIGSUB  19        0   12.25380E+04    20.900     1.500    25.073     4.803     0.766     0.000     0.000     0.383     0.393     0.000     0.000     0.000     0.000     0.000     0.000     0.010     0.000     0.000 .00000E+00 0.000E+00 0.000E+00 0.000E+00
BIGSUB  20        0   12.19820E+04    20.900     1.500    25.180     5.003     0.693     0.000     0.000     0.461     0.473     0.000     0.000     0.000     0.000     0.000     0.000     0.012     0.000     0.000 .00000E+00 0.000E+00 0.000E+00 0.000E+00
BIGSUB   1        0 1990.12360E+04   289.400    61.825  1311.747   243.713    34.476     0.000    30.637     2.111    33.165     7.700     8.041     0.951     0.156     0.005     1.954     0.418     0.003     0.000 .00000E+00 0.000E+00 0.000E+00 0.000E+00
BIGSUB   2        0 1990.37400E+03   289.400    61.823  1312.892   241.811    34.381     0.000    31.351     1.700    34.936    22.347    11.883     1.394     0.153     0.004     2.955     1.885     0.011     0.000 .00000E+00 0.000E+00 0.000E+00 0.000E+00
BIGSUB   3        0 1990.14590E+04   289.400    61.825  1311.723   243.943    35.039     0.000    31.134     1.751    33.511    12.948     9.707     1.141     0.137     0.005     2.587     0.626     0.004     0.000 .00000E+00 0.000E+00 0.000E+00 0.000E+00
BIGSUB   4        0 1990.91800E+03   289.400    61.825  1311.922   243.883    34.709     0.000    31.138     1.683    33.239    10.593     8.622     1.018     0.148     0.005     2.151     0.418     0.003     0.000 .00000E+00 0.000E+00 0.000E+00 0.000E+00
BIGSUB   5        0 1990.37770E+04   289.400    61.820  1313.779   240.028    34.861     0.000    33.697     3.245    37.328     6.521     9.156     1.088     0.154     0.006     2.062     0.385     0.002     0.000 .00000E+00 0.000E+00 0.000E+00 0.000E+00
BIGSUB   6        0 1990.18250E+04   289.400    61.815  1315.986   235.394    34.914     0.000    37.120     3.655    41.302     8.748     9.828     1.177     0.141     0.006     2.268     0.527     0.004     0.000 .00000E+00 0.000E+00 0.000E+00 0.000E+00
BIGSUB   7        0 1990.14660E+04   289.400    61.814  1316.192   211.785    30.643     0.000    56.196     5.083    61.351     5.553    10.757     1.288     0.293     0.009     2.410     0.072     0.001     0.000 .00000E+00 0.000E+00 0.000E+00 0.000E+00
BIGSUB   8        0 1990.34940E+04   289.400    61.804  1320.412   219.803    31.786     0.000    51.968     2.617    55.006    21.337    15.933     1.866     0.266     0.006     3.391     0.421     0.003     0.000 .00000E+00 0.000E+00 0.000E+00 0.000E+00
BIGSUB   9        0 1990.47420E+04   222.400    50.186  1239.538   203.368     1.627     0.000    23.853     1.879    25.958     3.539     5.843     0.688     0.148     0.006     1.498     0.227     0.003     0.000 .00000E+00 0.000E+00 0.000E+00 0.000E+00
BIGSUB  10        0 1990.13380E+04   222.400    50.176  1242.149   188.808     1.574     0.000    36.634     1.515    38.295    13.711    15.233     1.814     0.237     0.007     3.428     0.146     0.003     0.000 .00000E+00 0.000E+00 0.000E+00 0.000E+00
BIGSUB  11        0 1990.24060E+04   329.184    90.047  1078.785   222.543    75.916     0.000    53.336     3.865    57.370     2.907     4.193     0.472     0.430     0.007     0.883     0.169     0.002     0.000 .00000E+00 0.000E+00 0.000E+00 0.000E+00
BIGSUB  12        0 1990.19770E+04   292.300   105.788  1132.693   233.872     1.000     0.000    85.635     3.944    89.709     3.845    12.464     1.443     0.551     0.017     2.422     0.130     0.002     0.000 .00000E+00 0.000E+00 0.000E+00 0.000E+00
BIGSUB  13        0 1990.16410E+04   329.184    90.042  1080.497   214.633    72.837     0.000    63.478     8.098    71.659     3.041     5.042     0.575     0.494     0.008     1.065     0.083     0.001     0.000 .00000E+00 0.000E+00 0.000E+00 0.000E+00
BIGSUB  14        0 1990.52740E+04   292.300   105.763  1135.523   242.791     0.795     0.000    71.925     5.504    77.671     3.323     9.320     1.071     0.448     0.014     1.929     0.242     0.004     0.000 .00000E+00 0.000E+00 0.000E+00 0.000E+00
BIGSUB  15        0 1990.42200E+03   329.184    90.037  1082.085   222.286    75.690     0.000    54.076     7.895    62.071     2.091     3.381     0.386     0.397     0.008     0.717     0.101     0.001     0.000 .00000E+00 0.000E+00 0.000E+00 0.000E+00
BIGSUB  16        0 1990.13850E+04   329.184    90.032  1083.443   232.076    79.759     0.000    40.342     2.146    42.611     0.653     1.589     0.176     0.362     0.007     0.368     0.124     0.001     0.000 .00000E+00 0.000E+00 0.000E+00 0.000E+00
BIGSUB  17        0 1990.17180E+04   292.300   105.737  1138.596   211.549     0.389     0.695    97.002     6.625   103.688     3.046     9.785     1.137     0.638     0.020     2.114     0.061     0.001     0.000 .00000E+00 0.000E+00 0.000E+00 0.000E+00
BIGSUB  18        0 1990.26090E+04   292.300   105.745  1137.606   259.962     0.980     0.000    57.667     4.214    62.083     1.133     3.881     0.439     0.325     0.013     0.987     0.202     0.003     0.000 .00000E+00 0.000E+00 0.000E+00 0.000E+00
BIGSUB  19        0 1990.25380E+04   292.300   105.720  1140.582   248.846     0.766     2.176    67.093     5.885    73.329     4.726     8.878     1.006     0.384     0.013     1.879     0.351     0.005     0.000 .00000E+00 0.000E+00 0.000E+00 0.000E+00
BIGSUB  20        0 1990.19820E+04   292.300   105.712  1141.498   243.592     0.693     2.875    71.101     7.110    78.616     5.157    10.123     1.147     0.410     0.013     2.173     0.404     0.006     0.000 .00000E+00 0.000E+00 0.000E+00 0.000E+00
BIGSUB   1        0    1.12360E+04    19.100    26.211    17.848     8.475    55.568     0.000     0.326     0.129     0.485     0.042     0.050     0.006     0.006     0.000     0.011     0.030     0.000     0.000 .00000E+00 0.000E+00 0.000E+00 0.000E+00
BIGSUB   2        0    1.37400E+03    19.100    26.207    17.919     8.422    55.426     0.000     0.335     0.104     0.586     0.133     0.081     0.009     0.006     0.000     0.018     0.147     0.001     0.000 .00000E+00 0.000E+00 0.000E+00 0.000E+00
BIGSUB   3        0    1.14590E+04    19.100    26.211    17.846     8.112    56.570     0.000     0.281     0.106     0.430     0.068     0.053     0.006     0.006     0.000     0.012     0.042     0.000     0.000 .00000E+00 0.000E+00 0.000E+00 0.000E+00
BIGSUB   4        0    1.91800E+03    19.100    26.210    17.859     8.334    55.973     0.000     0.332     0.102     0.464     0.063     0.058     0.007     0.006     0.000     0.013     0.030     0.000     0.000 .00000E+00 0.000E+00 0.000E+00 0.000E+00
BIGSUB   5        0    1.37770E+04    19.100    26.204    17.975     8.217    56.121     0.000     0.333     0.201     0.560     0.028     0.042     0.005     0.006     0.000     0.009     0.026     0.000     0.000 .00000E+00 0.000E+00 0.000E+00 0.000E+00
BIGSUB   6        0    1.18250E+04    19.100    26.198    18.114     8.040    56.267     0.000     0.363     0.227     0.620     0.053     0.027     0.003     0.005     0.000     0.006     0.030     0.000     0.000 .00000E+00 0.000E+00 0.000E+00 0.000E+00
BIGSUB   7        0    1.14660E+04    19.100    26.197    18.127     9.011    49.693     0.000     1.331     0.336     1.672     0.040     0.106     0.013     0.009     0.000     0.024     0.005     0.000     0.000 .00000E+00 0.000E+00 0.000E+00 0.000E+00
BIGSUB   8        0    1.34940E+04    19.100    26.184    18.396     9.111    47.594     0.000     4.529     0.177     4.737     1.262     1.154     0.136     0.031     0.001     0.252     0.031     0.000     0.000 .00000E+00 0.000E+00 0.000E+00 0.000E+00
BIGSUB   9        0    1.47420E+04    34.700    18.450    19.588     3.391    17.720     0.000     0.000     0.118     0.125     0.000     0.000     0.000     0.000     0.000     0.000     0.007     0.000     0.000 .00000E+00 0.000E+00 0.000E+00 0.000E+00
BIGSUB  10        0    1.13380E+04    34.700    18.450    19.780     3.328    17.745     0.000     0.000     0.096     0.104     0.000     0.000     0.000     0.000     0.000     0.000     0.008     0.000     0.000 .00000E+00 0.000E+00 0.000E+00 0.000E+00
BIGSUB  11        0    1.24060E+04    29.257     2.915    19.324     6.194    71.629     0.000     0.921     0.277     1.218     0.051     0.089     0.010     0.063     0.000     0.019     0.020     0.000     0.000 .00000E+00 0.000E+00 0.000E+00 0.000E+00
BIGSUB  12        0    1.19770E+04    38.200     3.825    14.975     3.165     1.660     0.000     0.000     0.240     0.247     0.000     0.000     0.000     0.000     0.000     0.000     0.006     0.000     0.000 .00000E+00 0.000E+00 0.000E+00 0.000E+00
BIGSUB  13        0    1.16410E+04    29.257     2.915    19.471     5.746    68.998     0.000     0.919     0.524     1.451     0.039     0.074     0.008     0.057     0.000     0.015     0.008     0.000     0.000 .00000E+00 0.000E+00 0.000E+00 0.000E+00
BIGSUB  14        0    1.52740E+04    38.200     3.825    15.072     2.630     1.989     0.000     0.000     0.342     0.352     0.000     0.000     0.000     0.000     0.000     0.000     0.010     0.000     0.000 .00000E+00 0.000E+00 0.000E+00 0.000E+00
BIGSUB  15        0    1.42200E+03    29.257     2.915    19.608     5.952    71.644     0.000     0.934     0.471     1.416     0.038     0.066     0.007     0.064     0.000     0.014     0.011     0.000     0.000 .00000E+00 0.000E+00 0.000E+00 0.000E+00
BIGSUB  16        0    1.13850E+04    29.257     2.915    19.726     6.678    75.068     0.000     0.837     0.162     1.013     0.023     0.053     0.006     0.067     0.000     0.012     0.014     0.000     0.000 .00000E+00 0.000E+00 0.000E+00 0.000E+00
BIGSUB  17        0    1.17180E+04    38.200     3.825    15.271     2.393     1.821     0.000     0.000     0.413     0.416     0.000     0.000     0.000     0.000     0.000     0.000     0.004     0.000     0.000 .00000E+00 0.000E+00 0.000E+00 0.000E+00
BIGSUB  18        0    1.26090E+04    38.200     3.825    15.207     2.697     2.108     0.000     0.000     0.263     0.272     0.000     0.000     0.000     0.000     0.000     0.000     0.009     0.000     0.000 .00000E+00 0.000E+00 0.000E+00 0.000E+00
BIGSUB  19        0    1.25380E+04    38.200     3.825    15.401     2.592     1.997     0.000     0.000     0.356     0.363     0.000     0.000     0.000     0.000     0.000     0.000     0.007     0.000     0.000 .00000E+00 0.000E+00 0.000E+00 0.000E+00
BIGSUB  20        0    1.19820E+04    38.200     3.825    15.461     2.556     1.959     0.000     0.000     0.429     0.437     0.000     0.000     0.000     0.000     0.000     0.000     0.008     0.000     0.000 .00000E+00 0.000E+00 0.000E+00 0.000E+00
BIGSUB   1        0    2.12360E+04    41.900    22.300    31.255    18.890    77.578     0.000     0.682     0.116     0.826     0.111     0.138     0.016     0.005     0.000     0.028     0.027     0.000     0.000 .00000E+00 0.000E+00 0.000E+00 0.000E+00
BIGSUB   2        0    2.37400E+03    41.900    22.300    31.343    19.087    77.160     0.000     0.544     0.095     0.763     0.283     0.163     0.019     0.004     0.000     0.032     0.123     0.001     0.000 .00000E+00 0.000E+00 0.000E+00 0.000E+00
BIGSUB   3        0    2.14590E+04    41.900    22.300    31.253    18.585    79.295     0.000     0.364     0.096     0.497     0.165     0.103     0.012     0.003     0.000     0.020     0.037     0.000     0.000 .00000E+00 0.000E+00 0.000E+00 0.000E+00
BIGSUB   4        0    2.91800E+03    41.900    22.300    31.268    18.773    78.274     0.000     0.556     0.093     0.676     0.158     0.129     0.015     0.004     0.000     0.026     0.027     0.000     0.000 .00000E+00 0.000E+00 0.000E+00 0.000E+00
BIGSUB   5        0    2.37770E+04    41.900    22.300    31.412    19.008    78.075     0.000     0.537     0.180     0.740     0.080     0.105     0.012     0.005     0.000     0.022     0.022     0.000     0.000 .00000E+00 0.000E+00 0.000E+00 0.000E+00
BIGSUB   6        0    2.18250E+04    41.900    22.300    31.584    18.874    78.198     0.000     0.663     0.204     0.891     0.268     0.130     0.016     0.005     0.000     0.029     0.025     0.000     0.000 .00000E+00 0.000E+00 0.000E+00 0.000E+00
BIGSUB   7        0    2.14660E+04    41.900    22.300    31.601    18.101    66.883     0.000     4.944     0.314     5.263     0.468     0.778     0.093     0.027     0.001     0.174     0.005     0.000     0.000 .00000E+00 0.000E+00 0.000E+00 0.000E+00
BIGSUB   8        0    2.34940E+04    41.900    22.300    31.731    18.635    60.345     0.000     9.721     0.178     9.926     2.144     2.232     0.262     0.058     0.001     0.489     0.027     0.000     0.000 .00000E+00 0.000E+00 0.000E+00 0.000E+00
BIGSUB   9        0    2.47420E+04    36.500    31.497    24.351    14.405    47.216     0.000    13.856     0.112    13.978     1.269     2.159     0.246     0.085     0.003     0.568     0.010     0.000     0.000 .00000E+00 0.000E+00 0.000E+00 0.000E+00
BIGSUB  10        0    2.13380E+04    36.500    31.484    24.516    16.053    37.379     0.000    25.163     0.097    25.267     6.235     7.876     0.908     0.158     0.004     1.681     0.008     0.000     0.000 .00000E+00 0.000E+00 0.000E+00 0.000E+00
BIGSUB  11        0    2.24060E+04    46.448    51.743    23.316    12.414    76.783     0.000    53.285     0.273    53.573     3.518     5.763     0.641     0.392     0.007     1.211     0.015     0.000     0.000 .00000E+00 0.000E+00 0.000E+00 0.000E+00
BIGSUB  12        0    2.19770E+04    56.500    68.625    17.346     6.535    80.488     0.000     9.323     0.203     9.531     0.207     0.654     0.073     0.024     0.002     0.121     0.005     0.000     0.000 .00000E+00 0.000E+00 0.000E+00 0.000E+00
BIGSUB  13        0    2.16410E+04    46.448    51.740    23.443    12.597    73.972     0.000    53.198     0.482    53.688     2.772     4.908     0.549     0.388     0.007     1.009     0.007     0.000     0.000 .00000E+00 0.000E+00 0.000E+00 0.000E+00
BIGSUB  14        0    2.52740E+04    56.500    68.625    17.503     5.990    80.244     0.000     9.000     0.288     9.298     0.606     1.196     0.132     0.026     0.002     0.223     0.009     0.000     0.000 .00000E+00 0.000E+00 0.000E+00 0.000E+00
BIGSUB  15        0    2.42200E+03    46.448    51.736    23.561    12.555    76.663     0.000    53.946     0.433    54.388     2.218     3.937     0.440     0.414     0.008     0.821     0.009     0.000     0.000 .00000E+00 0.000E+00 0.000E+00 0.000E+00
BIGSUB  16        0    2.13850E+04    46.448    51.733    23.662    12.571    80.963     0.000    52.467     0.178    52.655     1.677     3.642     0.405     0.379     0.009     0.862     0.011     0.000     0.000 .00000E+00 0.000E+00 0.000E+00 0.000E+00
BIGSUB  17        0    2.17180E+04    56.500    68.625    17.664     6.316    68.436     0.000    17.284     0.350    17.637     0.789     1.766     0.199     0.059     0.003     0.364     0.003     0.000     0.000 .00000E+00 0.000E+00 0.000E+00 0.000E+00
BIGSUB  18        0    2.26090E+04    56.500    68.625    17.612     5.908    86.755     0.000     4.773     0.222     5.003     0.097     0.262     0.028     0.012     0.001     0.063     0.008     0.000     0.000 .00000E+00 0.000E+00 0.000E+00 0.000E+00
BIGSUB  19        0    2.25380E+04    56.500    68.625    17.769     6.054    83.180     0.000     9.941     0.300    10.252     0.831     1.357     0.146     0.024     0.002     0.261     0.011     0.000     0.000 .00000E+00 0.000E+00 0.000E+00 0.000E+00
BIGSUB  20        0    2.19820E+04    56.500    68.625    17.817     6.105    82.113     0.000    10.757     0.361    11.132     0.868     1.513     0.163     0.026     0.002     0.294     0.014     0.000     0.000 .00000E+00 0.000E+00 0.000E+00 0.000E+00
BIGSUB   1        0    3.12360E+04    87.200    10.510    58.568    39.541   115.608     0.010     8.550     0.160     8.800     1.507     1.884     0.221     0.037     0.001     0.406     0.089     0.001     0.000 .00000E+00 0.000E+00 0.000E+00 0.000E+00
BIGSUB   2        0    3.37400E+03    87.200    10.509    58.665    39.721   114.480     0.000     8.480     0.136     9.273     3.949     2.562     0.297     0.036     0.001     0.574     0.656     0.006     0.000 .00000E+00 0.000E+00 0.000E+00 0.000E+00
BIGSUB   3        0    3.14590E+04    87.200    10.510    58.566    39.407   120.328     0.000     5.684     0.129     5.916     2.088     1.626     0.189     0.028     0.001     0.370     0.103     0.001     0.000 .00000E+00 0.000E+00 0.000E+00 0.000E+00
BIGSUB   4        0    3.91800E+03    87.200    10.510    58.583    39.498   117.543     0.000     7.520     0.129     7.735     1.838     1.819     0.213     0.033     0.001     0.398     0.086     0.001     0.000 .00000E+00 0.000E+00 0.000E+00 0.000E+00
BIGSUB   5        0    3.37770E+04    87.200    10.509    58.740    39.695   114.915     0.000     9.046     0.244     9.358     1.373     2.024     0.239     0.034     0.002     0.445     0.067     0.001     0.000 .00000E+00 0.000E+00 0.000E+00 0.000E+00
BIGSUB   6        0    3.18250E+04    87.200    10.507    58.926    39.695   114.735     0.000     9.063     0.274     9.402     2.076     2.114     0.254     0.030     0.001     0.486     0.065     0.001     0.000 .00000E+00 0.000E+00 0.000E+00 0.000E+00
BIGSUB   7        0    3.14660E+04    87.200    10.507    58.944    39.087    90.196     0.000    22.906     0.460    23.373     2.009     3.930     0.471     0.091     0.004     0.884     0.007     0.000     0.000 .00000E+00 0.000E+00 0.000E+00 0.000E+00
BIGSUB   8        0    3.34940E+04    87.200    10.504    59.303    39.278    89.689     0.000    17.188     0.264    17.534     8.381     5.251     0.618     0.076     0.002     1.132     0.082     0.001     0.000 .00000E+00 0.000E+00 0.000E+00 0.000E+00
BIGSUB   9        0    3.47420E+04    77.000    30.270    51.346    35.158    77.329     0.000    13.800     0.197    14.033     0.679     1.916     0.220     0.069     0.003     0.539     0.036     0.001     0.000 .00000E+00 0.000E+00 0.000E+00 0.000E+00
[...]
BIGSUB   3        0   11.14590E+04    30.200     5.400    38.527     9.272    22.300     0.000     0.003     0.022     0.049     0.000     0.000     0.000     0.000     0.000     0.000     0.024     0.000     0.000 .00000E+00 0.000E+00 0.000E+00 0.000E+00
BIGSUB   4        0   11.91800E+03    30.200     5.400    38.550     9.366    22.224     0.000     0.001     0.020     0.038     0.000     0.000     0.000     0.000     0.000     0.000     0.017     0.000     0.000 .00000E+00 0.000E+00 0.000E+00 0.000E+00
BIGSUB   5        0   11.37770E+04    30.200     5.400    38.771     9.508    22.063     0.000     0.012     0.038     0.064     0.000     0.000     0.000     0.000     0.000     0.000     0.014     0.000     0.000 .00000E+00 0.000E+00 0.000E+00 0.000E+00
BIGSUB   6        0   11.18250E+04    30.200     5.400    39.034     9.565    21.901     0.000     0.017     0.046     0.080     0.000     0.000     0.000     0.000     0.000     0.000     0.017     0.000     0.000 .00000E+00 0.000E+00 0.000E+00 0.000E+00
BIGSUB   7        0   11.14660E+04    30.200     5.400    39.059    10.017    21.593     0.000     0.264     0.105     0.372     0.000     0.000     0.000     0.001     0.000     0.000     0.004     0.000     0.000 .00000E+00 0.000E+00 0.000E+00 0.000E+00
BIGSUB   8        0   11.34940E+04    30.200     5.400    39.568    10.102    21.520     0.000     0.116     0.050     0.184     0.025     0.020     0.002     0.000     0.000     0.005     0.018     0.000     0.000 .00000E+00 0.000E+00 0.000E+00 0.000E+00
BIGSUB   9        0   11.47420E+04    24.100     5.400    41.873    13.940    20.501     0.000     0.000     0.048     0.070     0.000     0.000     0.000     0.000     0.000     0.000     0.022     0.000     0.000 .00000E+00 0.000E+00 0.000E+00 0.000E+00
BIGSUB  10        0   11.13380E+04    24.100     5.400    42.235    15.302    19.398     0.000     0.000     0.066     0.079     0.000     0.000     0.000     0.000     0.000     0.000     0.013     0.000     0.000 .00000E+00 0.000E+00 0.000E+00 0.000E+00
BIGSUB  11        0   11.24060E+04    39.900     0.700    37.806    13.241    31.271     0.000     1.329     0.133     1.472     0.024     0.037     0.004     0.004     0.000     0.008     0.009     0.000     0.000 .00000E+00 0.000E+00 0.000E+00 0.000E+00
BIGSUB  12        0   11.19770E+04    15.200     2.000    38.925     9.671    11.391     0.000     0.000     0.162     0.167     0.000     0.000     0.000     0.000     0.000     0.000     0.006     0.000     0.000 .00000E+00 0.000E+00 0.000E+00 0.000E+00
BIGSUB  13        0   11.16410E+04    39.900     0.700    38.057    15.320    29.275     0.000     1.312     0.201     1.519     0.017     0.031     0.004     0.004     0.000     0.007     0.005     0.000     0.000 .00000E+00 0.000E+00 0.000E+00 0.000E+00
BIGSUB  14        0   11.52740E+04    15.200     2.000    39.372     9.779    11.242     0.000     0.000     0.231     0.241     0.000     0.000     0.000     0.000     0.000     0.000     0.010     0.000     0.000 .00000E+00 0.000E+00 0.000E+00 0.000E+00
BIGSUB  15        0   11.42200E+03    39.900     0.700    38.292    14.674    30.283     0.000     0.949     0.148     1.103     0.013     0.020     0.002     0.003     0.000     0.005     0.006     0.000     0.000 .00000E+00 0.000E+00 0.000E+00 0.000E+00
BIGSUB  16        0   11.13850E+04    39.900     0.700    38.493    11.971    32.811     0.000     0.984     0.088     1.078     0.008     0.017     0.002     0.003     0.000     0.004     0.007     0.000     0.000 .00000E+00 0.000E+00 0.000E+00 0.000E+00
BIGSUB  17        0   11.17180E+04    15.200     2.000    39.831     9.566    11.400     0.000     0.000     0.274     0.277     0.000     0.000     0.000     0.000     0.000     0.000     0.003     0.000     0.000 .00000E+00 0.000E+00 0.000E+00 0.000E+00
BIGSUB  18        0   11.26090E+04    15.200     2.000    39.683    10.005    11.007     0.000     0.000     0.178     0.186     0.000     0.000     0.000     0.000     0.000     0.000     0.008     0.000     0.000 .00000E+00 0.000E+00 0.000E+00 0.000E+00
BIGSUB  19        0   11.25380E+04    15.200     2.000    40.131     9.919    11.067     0.000     0.000     0.123     0.137     0.000     0.000     0.000     0.000     0.000     0.000     0.014     0.000     0.000 .00000E+00 0.000E+00 0.000E+00 0.000E+00
BIGSUB  20        0   11.19820E+04    15.200     2.000    40.270     9.873    11.106     0.000     0.000     0.135     0.151     0.000     0.000     0.000     0.000     0.000     0.000     0.017     0.000     0.000 .00000E+00 0.000E+00 0.000E+00 0.000E+00
BIGSUB   1        0   12.12360E+04    45.100     0.000    26.069    17.179    49.910     0.000     0.047     0.024     0.129     0.000     0.001     0.000     0.000     0.000     0.000     0.058     0.000     0.000 .00000E+00 0.000E+00 0.000E+00 0.000E+00
BIGSUB   2        0   12.37400E+03    45.100     0.000    26.186    17.151    49.325     0.000     0.036     0.022     0.468     0.002     0.003     0.000     0.000     0.000     0.001     0.410     0.001     0.000 .00000E+00 0.000E+00 0.000E+00 0.000E+00
BIGSUB   3        0   12.14590E+04    45.100     0.000    26.066    17.102    50.121     0.000     0.025     0.022     0.112     0.001     0.002     0.000     0.000     0.000     0.000     0.065     0.000     0.000 .00000E+00 0.000E+00 0.000E+00 0.000E+00
BIGSUB   4        0   12.91800E+03    45.100     0.000    26.087    17.161    50.001     0.000     0.040     0.020     0.116     0.002     0.002     0.000     0.000     0.000     0.001     0.056     0.000     0.000 .00000E+00 0.000E+00 0.000E+00 0.000E+00
BIGSUB   5        0   12.37770E+04    45.100     0.000    26.277    17.143    49.884     0.000     0.024     0.038     0.106     0.000     0.000     0.000     0.000     0.000     0.000     0.043     0.000     0.000 .00000E+00 0.000E+00 0.000E+00 0.000E+00
BIGSUB   6        0   12.18250E+04    45.100     0.000    26.505    17.284    49.500     0.000     0.073     0.047     0.158     0.042     0.022     0.003     0.000     0.000     0.005     0.038     0.000     0.000 .00000E+00 0.000E+00 0.000E+00 0.000E+00
BIGSUB   7        0   12.14660E+04    45.100     0.000    26.526    17.715    46.426     0.000     1.962     0.128     2.095     0.022     0.067     0.008     0.006     0.000     0.015     0.005     0.000     0.000 .00000E+00 0.000E+00 0.000E+00 0.000E+00
BIGSUB   8        0   12.34940E+04    45.100     0.000    26.967    18.103    47.251     0.000     0.905     0.061     1.021     0.314     0.215     0.026     0.003     0.000     0.048     0.055     0.000     0.000 .00000E+00 0.000E+00 0.000E+00 0.000E+00
BIGSUB   9        0   12.47420E+04    12.900     0.000    27.949    10.696    22.689     0.000     0.000     0.046     0.069     0.000     0.000     0.000     0.000     0.000     0.000     0.023     0.000     0.000 .00000E+00 0.000E+00 0.000E+00 0.000E+00
BIGSUB  10        0   12.13380E+04    12.900     0.000    28.252    13.831    18.440     0.000     0.004     0.065     0.082     0.000     0.000     0.000     0.000     0.000     0.000     0.014     0.000     0.000 .00000E+00 0.000E+00 0.000E+00 0.000E+00
BIGSUB  11        0   12.24060E+04    40.500     0.354    25.023    17.941    52.160     0.000     1.314     0.151     1.480     0.025     0.037     0.004     0.004     0.000     0.008     0.015     0.000     0.000 .00000E+00 0.000E+00 0.000E+00 0.000E+00
BIGSUB  12        0   12.19770E+04    17.700     3.476    24.035     8.282    20.800     0.000     0.000     0.155     0.162     0.000     0.000     0.000     0.000     0.000     0.000     0.006     0.000     0.000 .00000E+00 0.000E+00 0.000E+00 0.000E+00
BIGSUB  13        0   12.16410E+04    40.500     0.354    25.231    17.427    49.491     0.000     2.289     0.231     2.527     0.028     0.055     0.007     0.007     0.000     0.012     0.007     0.000     0.000 .00000E+00 0.000E+00 0.000E+00 0.000E+00
BIGSUB  14        0   12.52740E+04    17.700     3.474    24.381     9.055    19.873     0.000     0.000     0.222     0.234     0.000     0.000     0.000     0.000     0.000     0.000     0.012     0.000     0.000 .00000E+00 0.000E+00 0.000E+00 0.000E+00
BIGSUB  15        0   12.42200E+03    40.500     0.354    25.426    17.783    51.327     0.000     1.313     0.166     1.488     0.013     0.022     0.003     0.004     0.000     0.005     0.009     0.000     0.000 .00000E+00 0.000E+00 0.000E+00 0.000E+00
BIGSUB  16        0   12.13850E+04    40.500     0.354    25.594    18.736    54.452     0.000     0.026     0.092     0.129     0.000     0.000     0.000     0.000     0.000     0.000     0.011     0.000     0.000 .00000E+00 0.000E+00 0.000E+00 0.000E+00
BIGSUB  17        0   12.17180E+04    17.700     3.472    24.736    11.156    17.941     0.000     0.000     0.263     0.267     0.000     0.000     0.000     0.000     0.000     0.000     0.004     0.000     0.000 .00000E+00 0.000E+00 0.000E+00 0.000E+00
BIGSUB  18        0   12.26090E+04    17.700     3.473    24.621     8.492    20.204     0.000     0.000     0.171     0.181     0.000     0.000     0.000     0.000     0.000     0.000     0.010     0.000     0.000 .00000E+00 0.000E+00 0.000E+00 0.000E+00
BIGSUB  19        0   12.25380E+04    17.700     3.471    24.969     9.222    19.524     0.000     0.000     0.118     0.140     0.000     0.000     0.000     0.000     0.000     0.000     0.022     0.000     0.000 .00000E+00 0.000E+00 0.000E+00 0.000E+00
BIGSUB  20        0   12.19820E+04    17.700     3.470    25.077     9.470    19.312     0.000     0.000     0.130     0.155     0.000     0.000     0.000     0.000     0.000     0.000     0.026     0.000     0.000 .00000E+00 0.000E+00 0.000E+00 0.000E+00
BIGSUB   1        0 2001.12360E+04   175.100     7.600  1387.187   183.263    49.910     0.000     0.155     0.386     0.849     0.015     0.019     0.002     0.001     0.000     0.004     0.307     0.001     0.000 .00000E+00 0.000E+00 0.000E+00 0.000E+00
BIGSUB   2        0 2001.37400E+03   175.100     7.600  1388.431   182.895    49.325     0.000     0.120     0.363     1.899     0.045     0.028     0.003     0.001     0.000     0.006     1.416     0.003     0.000 .00000E+00 0.000E+00 0.000E+00 0.000E+00
BIGSUB   3        0 2001.14590E+04   175.100     7.600  1387.160   184.842    50.121     0.000     0.087     0.364     0.892     0.029     0.019     0.002     0.001     0.000     0.004     0.442     0.001     0.000 .00000E+00 0.000E+00 0.000E+00 0.000E+00
BIGSUB   4        0 2001.91800E+03   175.100     7.600  1387.376   183.946    50.001     0.000     0.137     0.327     0.770     0.030     0.025     0.003     0.001     0.000     0.005     0.306     0.001     0.000 .00000E+00 0.000E+00 0.000E+00 0.000E+00
BIGSUB   5        0 2001.37770E+04   175.100     7.600  1389.395   184.426    49.884     0.000     0.098     0.641     1.016     0.003     0.005     0.001     0.001     0.000     0.001     0.277     0.001     0.000 .00000E+00 0.000E+00 0.000E+00 0.000E+00
BIGSUB   6        0 2001.18250E+04   175.100     7.600  1391.795   184.708    49.500     0.000     0.219     0.785     1.364     0.094     0.053     0.006     0.001     0.000     0.011     0.361     0.001     0.000 .00000E+00 0.000E+00 0.000E+00 0.000E+00
BIGSUB   7        0 2001.14660E+04   175.100     7.600  1392.018   172.421    46.426     0.000     4.518     1.597     6.172     0.201     0.428     0.052     0.021     0.001     0.096     0.058     0.000     0.000 .00000E+00 0.000E+00 0.000E+00 0.000E+00
BIGSUB   8        0 2001.34940E+04   175.100     7.600  1396.615   177.230    47.251     0.000     2.096     0.791     3.214     0.673     0.471     0.057     0.010     0.000     0.106     0.327     0.001     0.000 .00000E+00 0.000E+00 0.000E+00 0.000E+00
BIGSUB   9        0 2001.47420E+04   200.400    13.300  1264.808   221.772    22.689     0.000     0.686     0.779     1.707     0.024     0.047     0.005     0.060     0.000     0.011     0.242     0.001     0.000 .00000E+00 0.000E+00 0.000E+00 0.000E+00
BIGSUB  10        0 2001.13380E+04   200.400    13.300  1267.567   218.710    18.440     0.000     4.602     1.025     5.792     0.998     0.952     0.109     0.113     0.001     0.208     0.165     0.001     0.000 .00000E+00 0.000E+00 0.000E+00 0.000E+00
BIGSUB  11        0 2001.24060E+04   213.100    33.037  1159.323   209.841    52.160     0.000    14.987     2.104    17.227     1.203     1.488     0.180     0.116     0.002     0.335     0.137     0.000     0.000 .00000E+00 0.000E+00 0.000E+00 0.000E+00
BIGSUB  12        0 2001.19770E+04   180.000    62.616  1163.035   204.274    20.800     0.000    32.154     2.555    34.798     1.419     3.732     0.448     0.150     0.005     0.742     0.089     0.000     0.000 .00000E+00 0.000E+00 0.000E+00 0.000E+00
BIGSUB  13        0 2001.16410E+04   213.100    33.035  1161.186   205.910    49.491     0.000    16.973     3.179    20.222     1.039     1.432     0.173     0.134     0.002     0.315     0.071     0.000     0.000 .00000E+00 0.000E+00 0.000E+00 0.000E+00
BIGSUB  14        0 2001.52740E+04   180.000    62.585  1166.188   202.267    19.873     0.000    31.596     3.636    35.413     1.443     3.057     0.366     0.155     0.005     0.679     0.181     0.001     0.000 .00000E+00 0.000E+00 0.000E+00 0.000E+00
BIGSUB  15        0 2001.42200E+03   213.100    33.033  1162.915   209.260    51.327     0.000    14.742     2.374    17.197     0.807     1.188     0.144     0.117     0.002     0.264     0.081     0.000     0.000 .00000E+00 0.000E+00 0.000E+00 0.000E+00
BIGSUB  16        0 2001.13850E+04   213.100    33.032  1164.393   214.798    54.452     0.000    11.293     1.412    12.805     0.451     0.830     0.100     0.082     0.002     0.210     0.099     0.000     0.000 .00000E+00 0.000E+00 0.000E+00 0.000E+00
BIGSUB  17        0 2001.17180E+04   180.000    62.553  1169.387   191.085    17.941     0.000    36.940     4.275    41.265     0.956     2.462     0.290     0.202     0.005     0.530     0.050     0.000     0.000 .00000E+00 0.000E+00 0.000E+00 0.000E+00
BIGSUB  18        0 2001.26090E+04   180.000    62.563  1168.357   207.326    20.204     0.000    28.957     2.812    31.913     0.677     1.957     0.234     0.124     0.006     0.519     0.144     0.000     0.000 .00000E+00 0.000E+00 0.000E+00 0.000E+00
BIGSUB  19        0 2001.25380E+04   180.000    62.532  1171.455   203.999    19.524     0.000    29.812     1.927    31.987     1.934     2.863     0.345     0.155     0.004     0.649     0.247     0.001     0.000 .00000E+00 0.000E+00 0.000E+00 0.000E+00
BIGSUB  20        0 2001.19820E+04   180.000    62.522  1172.410   203.734    19.312     0.000    29.399     2.122    31.807     2.092     3.101     0.373     0.162     0.004     0.713     0.286     0.001     0.000 .00000E+00 0.000E+00 0.000E+00 0.000E+00
BIGSUB   1        0 12.0.12360E+04   273.842    46.598  1301.699   248.198    49.910     1.587    20.920     2.876    24.216     3.510     3.946     0.469     0.095     0.003     0.912     0.420     0.002     0.000 .00000E+00 0.000E+00 0.000E+00 0.000E+00
BIGSUB   2        0 12.0.37400E+03   273.842    46.595  1302.846   247.303    49.325     1.125    20.887     2.323    25.138     9.803     5.662     0.669     0.095     0.002     1.347     1.928     0.008     0.000 .00000E+00 0.000E+00 0.000E+00 0.000E+00
BIGSUB   3        0 12.0.14590E+04   273.842    46.598  1301.675   251.134    50.121     0.822    18.803     1.966    21.380     5.749     4.315     0.511     0.081     0.003     1.095     0.611     0.003     0.000 .00000E+00 0.000E+00 0.000E+00 0.000E+00
BIGSUB   4        0 12.0.91800E+03   273.842    46.597  1301.874   249.449    50.001     1.280    20.260     2.318    22.997     4.763     4.092     0.485     0.089     0.003     0.970     0.419     0.002     0.000 .00000E+00 0.000E+00 0.000E+00 0.000E+00
BIGSUB   5        0 12.0.37770E+04   273.842    46.592  1303.735   246.228    49.884     0.808    22.778     3.167    26.322     3.095     4.465     0.531     0.106     0.004     0.988     0.378     0.002     0.000 .00000E+00 0.000E+00 0.000E+00 0.000E+00
BIGSUB   6        0 12.0.18250E+04   273.842    46.586  1305.946   244.984    49.500     0.122    24.082     2.996    27.578     4.548     4.799     0.576     0.103     0.004     1.092     0.500     0.002     0.000 .00000E+00 0.000E+00 0.000E+00 0.000E+00
BIGSUB   7        0 12.0.14660E+04   273.842    46.586  1306.152   223.367    46.426     1.353    42.985     5.628    48.684     2.985     5.734     0.681     0.231     0.007     1.263     0.071     0.000     0.000 .00000E+00 0.000E+00 0.000E+00 0.000E+00
BIGSUB   8        0 12.0.34940E+04   273.842    46.574  1310.320   228.753    47.251     1.565    39.121     3.881    43.434    11.673     8.402     0.996     0.202     0.004     1.797     0.432     0.002     0.000 .00000E+00 0.000E+00 0.000E+00 0.000E+00
BIGSUB   9        0 12.0.47420E+04   283.017    46.042  1206.171   253.663    22.689     0.388    26.106     2.614    29.006     1.975     3.572     0.400     0.197     0.005     0.835     0.286     0.003     0.000 .00000E+00 0.000E+00 0.000E+00 0.000E+00
BIGSUB  10        0 12.0.13380E+04   283.017    46.034  1208.742   234.917    18.440     1.004    44.815     2.853    47.852     8.572     9.287     1.064     0.328     0.007     1.995     0.183     0.003     0.000 .00000E+00 0.000E+00 0.000E+00 0.000E+00
BIGSUB  11        0 12.0.24060E+04   400.261    99.356  1092.950   292.623    52.160     2.077    99.349     5.822   105.391     6.023     7.768     0.897     0.544     0.012     1.664     0.219     0.001     0.000 .00000E+00 0.000E+00 0.000E+00 0.000E+00
BIGSUB  12        0 12.0.19770E+04   347.875    81.081  1113.007   276.079    20.800     0.000    69.838     4.191    74.170     2.160     6.617     0.762     0.378     0.012     1.263     0.141     0.001     0.000 .00000E+00 0.000E+00 0.000E+00 0.000E+00
BIGSUB  13        0 12.0.16410E+04   400.261    99.347  1094.717   271.270    49.491     8.140   114.291    12.713   127.104     5.965     8.528     0.984     0.655     0.013     1.792     0.101     0.001     0.007 .00000E+00 0.000E+00 0.000E+00 0.000E+00
BIGSUB  14        0 12.0.52740E+04   347.875    81.045  1115.920   277.089    19.873     0.249    67.140     5.546    72.944     2.659     6.252     0.709     0.389     0.012     1.257     0.259     0.003     0.000 .00000E+00 0.000E+00 0.000E+00 0.000E+00
BIGSUB  15        0 12.0.42200E+03   400.261    99.339  1096.356   282.894    51.327     8.919   102.952    12.351   115.432     4.305     6.449     0.750     0.562     0.014     1.380     0.129     0.001     0.011 .00000E+00 0.000E+00 0.000E+00 0.000E+00
BIGSUB  16        0 12.0.13850E+04   400.261    99.332  1097.758   318.326    54.452     0.444    75.784     3.479    79.425     1.811     3.755     0.436     0.394     0.012     0.905     0.163     0.001     0.000 .00000E+00 0.000E+00 0.000E+00 0.000E+00
BIGSUB  17        0 12.0.17180E+04   347.875    81.028  1118.941   243.272    17.941     2.173    98.188     8.111   106.364     2.676     7.366     0.829     0.650     0.017     1.526     0.065     0.001     0.000 .00000E+00 0.000E+00 0.000E+00 0.000E+00
BIGSUB  18        0 12.0.26090E+04   347.875    81.033  1117.968   295.847    20.204     0.160    49.946     4.170    54.334     0.783     2.519     0.290     0.240     0.011     0.640     0.217     0.002     0.000 .00000E+00 0.000E+00 0.000E+00 0.000E+00
BIGSUB  19        0 12.0.25380E+04   347.875    81.016  1120.895   283.276    19.524     4.880    59.158     7.396    66.969     3.742     5.496     0.629     0.301     0.010     1.157     0.415     0.003     0.000 .00000E+00 0.000E+00 0.000E+00 0.000E+00
BIGSUB  20        0 12.0.19820E+04   347.875    81.011  1121.796   281.041    19.312     7.118    58.925     9.763    69.176     3.945     6.117     0.699     0.305     0.009     1.293     0.489     0.004     0.000 .00000E+00 0.000E+00 0.000E+00 0.000E+00
