1
    SWAT Apr 12 2013    VER 2012/Rev 591                                                                 0/ 0/   0      0: 0: 0

    General Input/Output section (file.cio):                                        
    11/14/2011 12:00:00 AM ARCGIS-SWAT interface AV                                 
                                                                                    


       SUB      GIS  MON   AREAkm2  PRECIPmm SNOMELTmm     PETmm      ETmm      SWmm    PERCmm    SURQmm    GW_Qmm    WYLDmm  SYLDt/ha ORGNkg/ha ORGPkg/haNSURQkg/ha SOLPkg/ha SEDPkg/ha LAT Q(mm)LATNO3kg/hGWNO3kg/haCHOLAmic/LCBODU mg/L DOXQ mg/L TNO3kg/ha
BIGSUB   1        0    1.12360E+04    51.400    11.225    15.052     7.471    66.139     0.000     0.156     0.000     0.222     0.000     0.000     0.000     0.003     0.000     0.000     0.067     0.000     0.000 .00000E+00 0.000E+00 0.000E+00 0.000E+00
BIGSUB   2        0    1.37400E+03    51.400    11.225    15.113     7.560    65.537     0.000     0.098     0.000     0.498     0.000     0.000     0.000     0.003     0.000     0.000     0.400     0.002     0.000 .00000E+00 0.000E+00 0.000E+00 0.000E+00
BIGSUB   3        0    1.14590E+04    51.400    11.225    15.050     7.520    67.066     0.000     0.078     0.000     0.161     0.000     0.000     0.000     0.002     0.000     0.000     0.083     0.000     0.000 .00000E+00 0.000E+00 0.000E+00 0.000E+00
BIGSUB   4        0    1.91800E+03    51.400    11.225    15.061     7.495    66.522     0.000     0.117     0.000     0.182     0.000     0.000     0.000     0.003     0.000     0.000     0.065     0.000     0.000 .00000E+00 0.000E+00 0.000E+00 0.000E+00
BIGSUB   5        0    1.37770E+04    51.400    11.225    15.160     7.654    66.843     0.000     0.116     0.000     0.171     0.000     0.000     0.000     0.003     0.000     0.000     0.054     0.000     0.000 .00000E+00 0.000E+00 0.000E+00 0.000E+00
BIGSUB   6        0    1.18250E+04    51.400    11.225    15.279     7.772    66.232     0.000     0.114     0.000     0.175     0.000     0.000     0.000     0.002     0.000     0.000     0.061     0.000     0.000 .00000E+00 0.000E+00 0.000E+00 0.000E+00
BIGSUB   7        0    1.14660E+04    51.400    11.225    15.290     7.520    62.708     0.000     0.883     0.000     0.892     0.000     0.000     0.000     0.014     0.000     0.000     0.008     0.000     0.000 .00000E+00 0.000E+00 0.000E+00 0.000E+00
BIGSUB   8        0    1.34940E+04    51.400    11.225    15.520     7.660    63.333     0.000     0.626     0.000     0.697     0.069     0.097     0.011     0.008     0.000     0.021     0.071     0.000     0.000 .00000E+00 0.000E+00 0.000E+00 0.000E+00
BIGSUB   9        0    1.47420E+04    26.400    12.813    16.126     5.391    26.622     0.000     0.000     0.000     0.012     0.000     0.000     0.000     0.000     0.000     0.000     0.012     0.000     0.000 .00000E+00 0.000E+00 0.000E+00 0.000E+00
BIGSUB  10        0    1.13380E+04    26.400    12.807    16.283     6.896    23.553     0.000     0.000     0.000     0.009     0.000     0.000     0.000     0.000     0.000     0.000     0.009     0.000     0.000 .00000E+00 0.000E+00 0.000E+00 0.000E+00
BIGSUB  11        0    1.24060E+04    38.272    37.456    20.882     9.325    49.215     0.000     3.366     0.987     4.370     0.286     0.367     0.041     0.041     0.001     0.076     0.018     0.000     0.075 .00000E+00 0.000E+00 0.000E+00 0.000E+00
BIGSUB  12        0    1.19770E+04    46.500     4.125    14.944     6.888    54.074     0.000     0.014     0.000     0.025     0.000     0.000     0.000     0.001     0.000     0.000     0.011     0.000     0.000 .00000E+00 0.000E+00 0.000E+00 0.000E+00
BIGSUB  13        0    1.16410E+04    38.272    37.453    21.038    10.779    45.771     0.000     4.653     2.506     7.169     0.323     0.484     0.055     0.061     0.001     0.101     0.011     0.000     0.185 .00000E+00 0.000E+00 0.000E+00 0.000E+00
BIGSUB  14        0    1.52740E+04    46.500     4.125    15.141     6.794    52.285     0.000     0.086     0.045     0.152     0.000     0.000     0.000     0.005     0.000     0.000     0.021     0.000     0.001 .00000E+00 0.000E+00 0.000E+00 0.000E+00
BIGSUB  15        0    1.42200E+03    38.272    37.451    21.185    10.279    47.748     0.000     4.369     2.048     6.429     0.207     0.349     0.040     0.054     0.001     0.073     0.011     0.000     0.149 .00000E+00 0.000E+00 0.000E+00 0.000E+00
BIGSUB  16        0    1.13850E+04    38.272    37.448    21.310     8.296    51.680     0.000     2.064     0.171     2.248     0.038     0.077     0.009     0.028     0.000     0.018     0.012     0.000     0.007 .00000E+00 0.000E+00 0.000E+00 0.000E+00
BIGSUB  17        0    1.17180E+04    46.500     4.125    15.342     6.681    48.627     0.000     0.341     0.954     1.302     0.000     0.000     0.000     0.017     0.000     0.000     0.007     0.000     0.039 .00000E+00 0.000E+00 0.000E+00 0.000E+00
BIGSUB  18        0    1.26090E+04    46.500     4.125    15.277     6.892    53.130     0.000     0.000     0.000     0.015     0.000     0.000     0.000     0.000     0.000     0.000     0.015     0.000     0.000 .00000E+00 0.000E+00 0.000E+00 0.000E+00
BIGSUB  19        0    1.25380E+04    46.500     4.125    15.474     6.850    51.675     0.000     0.013     0.763     0.813     0.000     0.000     0.000     0.001     0.000     0.000     0.037     0.000     0.021 .00000E+00 0.000E+00 0.000E+00 0.000E+00
BIGSUB  20        0    1.19820E+04    46.500     4.125    15.535     6.799    51.214     0.000     0.017     1.039     1.100     0.000     0.000     0.000     0.002     0.000     0.000     0.044     0.001     0.029 .00000E+00 0.000E+00 0.000E+00 0.000E+00
BIGSUB   1        0    2.12360E+04    40.600    43.800    25.836    17.730    92.078     0.000     8.740     0.000     8.788     2.007     2.332     0.274     0.027     0.002     0.625     0.048     0.000     0.000 .00000E+00 0.000E+00 0.000E+00 0.000E+00
BIGSUB   2        0    2.37400E+03    40.600    43.798    25.908    17.747    90.281     0.000     9.744     0.000     9.965     6.172     4.442     0.520     0.028     0.002     1.201     0.221     0.002     0.000 .00000E+00 0.000E+00 0.000E+00 0.000E+00
BIGSUB   3        0    2.14590E+04    40.600    43.800    25.835    17.063    90.435     0.000    11.935     0.000    11.998     3.693     3.862     0.453     0.031     0.002     1.100     0.063     0.000     0.000 .00000E+00 0.000E+00 0.000E+00 0.000E+00
BIGSUB   4        0    2.91800E+03    40.600    43.800    25.847    17.470    91.437     0.000    10.098     0.000    10.144     2.722     2.755     0.324     0.029     0.002     0.752     0.047     0.000     0.000 .00000E+00 0.000E+00 0.000E+00 0.000E+00
BIGSUB   5        0    2.37770E+04    40.600    43.795    25.964    17.452    87.702     0.000    13.751     0.000    13.792     1.995     4.092     0.484     0.039     0.003     0.929     0.041     0.000     0.000 .00000E+00 0.000E+00 0.000E+00 0.000E+00
BIGSUB   6        0    2.18250E+04    40.600    43.790    26.104    16.979    82.096     0.000    18.985     0.000    19.034     4.363     6.127     0.732     0.051     0.003     1.393     0.049     0.000     0.000 .00000E+00 0.000E+00 0.000E+00 0.000E+00
BIGSUB   7        0    2.14660E+04    40.600    43.789    26.117    17.092    69.384     0.000    27.758     0.000    27.765     2.745     6.042     0.720     0.105     0.005     1.338     0.007     0.000     0.000 .00000E+00 0.000E+00 0.000E+00 0.000E+00
BIGSUB   8        0    2.34940E+04    40.600    43.779    26.378    17.816    72.493     0.000    25.199     0.000    25.241    10.190    10.244     1.198     0.086     0.003     2.157     0.043     0.000     0.000 .00000E+00 0.000E+00 0.000E+00 0.000E+00
BIGSUB   9        0    2.47420E+04    35.500    36.773    23.388    11.614    55.134     0.000     6.264     0.000     6.278     0.410     0.945     0.109     0.027     0.002     0.279     0.014     0.001     0.000 .00000E+00 0.000E+00 0.000E+00 0.000E+00
BIGSUB  10        0    2.13380E+04    35.500    36.769    23.547    11.749    58.885     0.000     0.056     0.000     0.066     0.004     0.010     0.001     0.001     0.000     0.002     0.010     0.000     0.000 .00000E+00 0.000E+00 0.000E+00 0.000E+00
BIGSUB  11        0    2.24060E+04    26.224     9.666    21.797    11.813    44.472     0.000     4.416     0.782     5.213     0.172     0.406     0.046     0.038     0.001     0.084     0.014     0.000     0.055 .00000E+00 0.000E+00 0.000E+00 0.000E+00
BIGSUB  12        0    2.19770E+04    44.900    32.625    19.464     8.112    71.186     0.000     8.452     0.000     8.461     0.185     0.816     0.093     0.039     0.002     0.156     0.009     0.000     0.000 .00000E+00 0.000E+00 0.000E+00 0.000E+00
BIGSUB  13        0    2.16410E+04    26.224     9.666    21.916    12.801    39.172     0.000     5.733     1.995     7.737     0.195     0.571     0.065     0.051     0.001     0.119     0.009     0.000     0.138 .00000E+00 0.000E+00 0.000E+00 0.000E+00
BIGSUB  14        0    2.52740E+04    44.900    32.625    19.642     7.944    76.691     0.000     1.286     0.062     1.365     0.025     0.106     0.012     0.024     0.000     0.020     0.017     0.000     0.001 .00000E+00 0.000E+00 0.000E+00 0.000E+00
BIGSUB  15        0    2.42200E+03    26.224     9.666    22.027    12.586    42.075     0.000     3.983     1.631     5.622     0.123     0.281     0.032     0.034     0.001     0.059     0.009     0.000     0.111 .00000E+00 0.000E+00 0.000E+00 0.000E+00
BIGSUB  16        0    2.13850E+04    26.224     9.666    22.122    11.099    48.752     0.000     2.919     0.108     3.037     0.025     0.099     0.011     0.022     0.001     0.023     0.010     0.000     0.004 .00000E+00 0.000E+00 0.000E+00 0.000E+00
BIGSUB  17        0    2.17180E+04    44.900    32.625    19.824     8.053    70.794     0.000     3.111     0.682     3.798     0.044     0.193     0.022     0.053     0.001     0.041     0.006     0.000     0.026 .00000E+00 0.000E+00 0.000E+00 0.000E+00
BIGSUB  18        0    2.26090E+04    44.900    32.625    19.765     7.784    78.624     0.000     0.575     0.000     0.588     0.000     0.000     0.000     0.008     0.000     0.000     0.013     0.000     0.000 .00000E+00 0.000E+00 0.000E+00 0.000E+00
BIGSUB  19        0    2.25380E+04    44.900    32.625    19.942     8.092    77.410     0.000     0.374     0.562     0.959     0.003     0.010     0.001     0.004     0.000     0.002     0.024     0.000     0.015 .00000E+00 0.000E+00 0.000E+00 0.000E+00
BIGSUB  20        0    2.19820E+04    44.900    32.625    19.997     8.144    75.087     0.000     2.196     0.765     2.989     0.034     0.100     0.011     0.007     0.001     0.028     0.028     0.001     0.020 .00000E+00 0.000E+00 0.000E+00 0.000E+00
BIGSUB   1        0    3.12360E+04    40.400     3.000    69.276    39.370    92.518     0.000     0.381     0.000     0.445     0.082     0.120     0.014     0.003     0.000     0.025     0.064     0.001     0.000 .00000E+00 0.000E+00 0.000E+00 0.000E+00
BIGSUB   2        0    3.37400E+03    40.400     3.000    69.392    39.527    90.415     0.000     0.351     0.000     0.679     0.205     0.162     0.019     0.002     0.000     0.033     0.328     0.003     0.000 .00000E+00 0.000E+00 0.000E+00 0.000E+00
BIGSUB   3        0    3.14590E+04    40.400     3.000    69.274    39.761    90.697     0.000     0.223     0.000     0.304     0.125     0.104     0.012     0.001     0.000     0.022     0.081     0.001     0.000 .00000E+00 0.000E+00 0.000E+00 0.000E+00
BIGSUB   4        0    3.91800E+03    40.400     3.000    69.294    39.533    91.813     0.000     0.352     0.000     0.414     0.120     0.124     0.015     0.002     0.000     0.026     0.062     0.001     0.000 .00000E+00 0.000E+00 0.000E+00 0.000E+00
BIGSUB   5        0    3.37770E+04    40.400     3.000    69.482    39.963    87.805     0.000     0.182     0.000     0.236     0.047     0.066     0.008     0.001     0.000     0.014     0.054     0.000     0.000 .00000E+00 0.000E+00 0.000E+00 0.000E+00
BIGSUB   6        0    3.18250E+04    40.400     3.000    69.706    40.002    82.359     0.000     0.026     0.000     0.090     0.007     0.006     0.001     0.000     0.000     0.001     0.064     0.001     0.000 .00000E+00 0.000E+00 0.000E+00 0.000E+00
BIGSUB   7        0    3.14660E+04    40.400     3.000    69.727    37.255    71.210     0.000     0.805     0.000     0.813     0.061     0.150     0.018     0.006     0.000     0.033     0.008     0.000     0.000 .00000E+00 0.000E+00 0.000E+00 0.000E+00
BIGSUB   8        0    3.34940E+04    40.400     3.000    70.158    37.751    74.280     0.000     0.561     0.000     0.619     0.091     0.097     0.012     0.004     0.000     0.021     0.058     0.000     0.000 .00000E+00 0.000E+00 0.000E+00 0.000E+00
BIGSUB   9        0    3.47420E+04    44.100     0.500    61.109    30.899    67.572     0.000     0.459     0.000     0.503     0.059     0.125     0.015     0.005     0.000     0.026     0.043     0.001     0.000 .00000E+00 0.000E+00 0.000E+00 0.000E+00
BIGSUB  10        0    3.13380E+04    44.100     0.500    61.359    29.104    69.006     0.000     4.334     0.000     4.351     0.810     1.267     0.149     0.030     0.001     0.280     0.017     0.000     0.000 .00000E+00 0.000E+00 0.000E+00 0.000E+00
BIGSUB  11        0    3.24060E+04     1.524    15.721    54.749    21.918    31.730     0.000     7.982     0.515     8.511     0.514     0.841     0.094     0.037     0.001     0.175     0.013     0.000     0.034 .00000E+00 0.000E+00 0.000E+00 0.000E+00
BIGSUB  12        0    3.19770E+04    82.900    67.538    49.658    40.405   128.777     0.000    29.559     0.000    29.575     1.075     4.047     0.465     0.095     0.006     0.774     0.015     0.000     0.000 .00000E+00 0.000E+00 0.000E+00 0.000E+00
BIGSUB  13        0    3.16410E+04     1.524    15.721    54.925    19.962    27.058     0.000     9.306     1.370    10.685     0.570     1.067     0.121     0.048     0.001     0.223     0.010     0.000     0.089 .00000E+00 0.000E+00 0.000E+00 0.000E+00
BIGSUB  14        0    3.52740E+04    82.900    67.513    49.929    40.230   131.819     0.000    30.762     0.000    30.792     1.396     4.400     0.505     0.110     0.006     0.879     0.030     0.001     0.000 .00000E+00 0.000E+00 0.000E+00 0.000E+00
BIGSUB  15        0    3.42200E+03     1.524    15.721    55.089    21.405    29.554     0.000     8.289     1.146     9.443     0.392     0.708     0.081     0.039     0.001     0.149     0.009     0.000     0.073 .00000E+00 0.000E+00 0.000E+00 0.000E+00
BIGSUB  16        0    3.13850E+04     1.524    15.721    55.229    23.980    35.658     0.000     6.269     0.000     6.278     0.098     0.271     0.030     0.023     0.001     0.062     0.009     0.000     0.000 .00000E+00 0.000E+00 0.000E+00 0.000E+00
BIGSUB  17        0    3.17180E+04    82.900    67.487    50.204    40.353    96.356    11.803    48.235     0.850    49.092     1.482     5.140     0.596     0.191     0.011     1.104     0.008     0.000     0.039 .00000E+00 0.000E+00 0.000E+00 0.000E+00
BIGSUB  18        0    3.26090E+04    82.900    67.495    50.115    39.903   144.812     0.000    20.757     0.000    20.779     0.324     1.250     0.140     0.059     0.005     0.313     0.022     0.000     0.000 .00000E+00 0.000E+00 0.000E+00 0.000E+00
BIGSUB  19        0    3.25380E+04    82.900    67.470    50.383    40.522   130.582     4.592    29.448     0.508    30.036     2.034     4.343     0.492     0.111     0.006     0.896     0.081     0.001     0.014 .00000E+00 0.000E+00 0.000E+00 0.000E+00
BIGSUB  20        0    3.19820E+04    82.900    67.462    50.466    40.474   125.456     6.144    30.549     0.697    31.341     2.191     4.896     0.555     0.125     0.006     1.009     0.095     0.002     0.019 .00000E+00 0.000E+00 0.000E+00 0.000E+00
BIGSUB   1        0    4.12360E+04    69.300     3.800   105.468    51.461   104.868     0.000     4.987     0.000     5.067     1.340     1.733     0.207     0.025     0.001     0.363     0.079     0.001     0.000 .00000E+00 0.000E+00 0.000E+00 0.000E+00
BIGSUB   2        0    4.37400E+03    69.300     3.800   105.546    51.427   103.272     0.000     4.225     0.000     4.658     3.373     2.346     0.279     0.021     0.001     0.490     0.433     0.003     0.000 .00000E+00 0.000E+00 0.000E+00 0.000E+00
BIGSUB   3        0    4.14590E+04    69.300     3.800   105.466    51.903   105.052     0.000     2.673     0.000     2.775     1.987     1.462     0.174     0.013     0.000     0.306     0.102     0.001     0.000 .00000E+00 0.000E+00 0.000E+00 0.000E+00
BIGSUB   4        0    4.91800E+03    69.300     3.800   105.480    51.645   104.986     0.000     4.140     0.000     4.217     1.871     1.723     0.205     0.020     0.001     0.361     0.077     0.001     0.000 .00000E+00 0.000E+00 0.000E+00 0.000E+00
BIGSUB   5        0    4.37770E+04    69.300     3.800   105.607    51.831   101.592     0.000     2.974     0.000     3.042     0.899     1.146     0.137     0.016     0.001     0.244     0.068     0.001     0.000 .00000E+00 0.000E+00 0.000E+00 0.000E+00
BIGSUB   6        0    4.18250E+04    69.300     3.800   105.759    51.864    97.678     0.000     1.363     0.000     1.449     0.492     0.406     0.049     0.006     0.000     0.092     0.086     0.001     0.000 .00000E+00 0.000E+00 0.000E+00 0.000E+00
BIGSUB   7        0    4.14660E+04    69.300     3.800   105.773    48.613    81.187     0.000     9.191     0.000     9.199     0.941     1.946     0.234     0.048     0.002     0.437     0.009     0.000     0.000 .00000E+00 0.000E+00 0.000E+00 0.000E+00
BIGSUB   8        0    4.34940E+04    69.300     3.800   106.061    49.246    85.868     0.000     7.625     0.000     7.707     2.855     2.261     0.268     0.039     0.001     0.491     0.082     0.001     0.000 .00000E+00 0.000E+00 0.000E+00 0.000E+00
BIGSUB   9        0    4.47420E+04    55.600     0.000    96.776    38.055    83.913     0.000     0.907     0.000     0.959     0.307     0.435     0.051     0.010     0.000     0.091     0.052     0.001     0.000 .00000E+00 0.000E+00 0.000E+00 0.000E+00
BIGSUB  10        0    4.13380E+04    55.600     0.000    96.948    34.740    83.224     0.000     6.058     0.000     6.078     2.372     2.852     0.338     0.046     0.001     0.637     0.020     0.000     0.000 .00000E+00 0.000E+00 0.000E+00 0.000E+00
BIGSUB  11        0    4.24060E+04    57.529     0.000    88.662    36.296    52.462     0.000     0.310     0.185     0.511     0.025     0.037     0.004     0.003     0.000     0.008     0.016     0.000     0.012 .00000E+00 0.000E+00 0.000E+00 0.000E+00
BIGSUB  12        0    4.19770E+04    64.700     0.000    85.056    41.499   144.384     0.000     5.726     0.000     5.745     0.371     0.967     0.112     0.047     0.001     0.188     0.019     0.000     0.000 .00000E+00 0.000E+00 0.000E+00 0.000E+00
BIGSUB  13        0    4.16410E+04    57.529     0.000    88.783    33.238    50.489     0.000     0.551     0.535     1.095     0.025     0.053     0.006     0.005     0.000     0.011     0.010     0.000     0.033 .00000E+00 0.000E+00 0.000E+00 0.000E+00
BIGSUB  14        0    4.52740E+04    64.700     0.000    85.253    40.863   141.081     5.256     6.468     0.000     6.506     0.461     1.099     0.128     0.047     0.001     0.212     0.038     0.001     0.000 .00000E+00 0.000E+00 0.000E+00 0.000E+00
BIGSUB  15        0    4.42200E+03    57.529     0.000    88.895    34.595    51.969     0.000     0.320     0.469     0.799     0.013     0.024     0.003     0.003     0.000     0.005     0.010     0.000     0.028 .00000E+00 0.000E+00 0.000E+00 0.000E+00
BIGSUB  16        0    4.13850E+04    57.529     0.000    88.991    38.940    54.206     0.000     0.000     0.000     0.011     0.000     0.000     0.000     0.000     0.000     0.000     0.011     0.000     0.000 .00000E+00 0.000E+00 0.000E+00 0.000E+00
BIGSUB  17        0    4.17180E+04    64.700     0.000    85.453    37.411    93.541    12.709    13.237     1.545    14.792     0.520     1.450     0.169     0.080     0.003     0.315     0.010     0.000     0.102 .00000E+00 0.000E+00 0.000E+00 0.000E+00
BIGSUB  18        0    4.26090E+04    64.700     0.000    85.389    42.483   163.984     0.000     1.524     0.000     1.551     0.020     0.058     0.007     0.017     0.000     0.015     0.027     0.000     0.000 .00000E+00 0.000E+00 0.000E+00 0.000E+00
BIGSUB  19        0    4.25380E+04    64.700     0.000    85.581    40.750   140.050     6.953     6.553     0.848     7.502     0.811     1.188     0.136     0.050     0.001     0.243     0.101     0.002     0.032 .00000E+00 0.000E+00 0.000E+00 0.000E+00
BIGSUB  20        0    4.19820E+04    64.700     0.000    85.641    40.142   132.437     9.411     7.114     1.160     8.393     0.805     1.334     0.153     0.052     0.001     0.270     0.119     0.002     0.045 .00000E+00 0.000E+00 0.000E+00 0.000E+00
BIGSUB   1        0    5.12360E+04    14.600     0.000   160.727    42.782    76.670     0.000     0.014     0.000     0.077     0.000     0.003     0.000     0.000     0.000     0.001     0.063     0.000     0.000 .00000E+00 0.000E+00 0.000E+00 0.000E+00
BIGSUB   2        0    5.37400E+03    14.600     0.000   160.753    42.576    75.220     0.000     0.001     0.000     0.234     0.000     0.000     0.000     0.000     0.000     0.000     0.233     0.001     0.000 .00000E+00 0.000E+00 0.000E+00 0.000E+00
BIGSUB   3        0    5.14590E+04    14.600     0.000   160.727    42.993    76.637     0.000     0.001     0.000     0.089     0.000     0.000     0.000     0.000     0.000     0.000     0.088     0.001     0.000 .00000E+00 0.000E+00 0.000E+00 0.000E+00
BIGSUB   4        0    5.91800E+03    14.600     0.000   160.731    42.872    76.697     0.000     0.001     0.000     0.063     0.000     0.000     0.000     0.000     0.000     0.000     0.062     0.000     0.000 .00000E+00 0.000E+00 0.000E+00 0.000E+00
BIGSUB   5        0    5.37770E+04    14.600     0.000   160.773    42.848    73.329     0.000     0.007     0.000     0.066     0.000     0.001     0.000     0.000     0.000     0.000     0.058     0.000     0.000 .00000E+00 0.000E+00 0.000E+00 0.000E+00
BIGSUB   6        0    5.18250E+04    14.600     0.000   160.822    43.769    68.491     0.000     0.000     0.000     0.083     0.000     0.000     0.000     0.000     0.000     0.000     0.082     0.001     0.000 .00000E+00 0.000E+00 0.000E+00 0.000E+00
BIGSUB   7        0    5.14660E+04    14.600     0.000   160.827    39.467    56.316     0.000     0.189     0.000     0.198     0.000     0.018     0.002     0.002     0.000     0.004     0.009     0.000     0.000 .00000E+00 0.000E+00 0.000E+00 0.000E+00
BIGSUB   8        0    5.34940E+04    14.600     0.000   160.916    42.742    57.708     0.000     0.023     0.000     0.090     0.000     0.004     0.000     0.000     0.000     0.001     0.067     0.000     0.000 .00000E+00 0.000E+00 0.000E+00 0.000E+00
BIGSUB   9        0    5.47420E+04    22.800     0.000   152.008    47.117    59.237     0.000     0.360     0.000     0.408     0.105     0.211     0.025     0.003     0.000     0.044     0.048     0.001     0.000 .00000E+00 0.000E+00 0.000E+00 0.000E+00
BIGSUB  10        0    5.13380E+04    22.800     0.000   152.061    42.789    61.006     0.000     2.258     0.000     2.280     1.094     1.330     0.158     0.010     0.001     0.298     0.022     0.000     0.000 .00000E+00 0.000E+00 0.000E+00 0.000E+00
BIGSUB  11        0    5.24060E+04    42.426     0.000   127.176    34.440    60.014     0.000     0.335     0.000     0.354     0.047     0.054     0.006     0.001     0.000     0.012     0.019     0.000     0.000 .00000E+00 0.000E+00 0.000E+00 0.000E+00
BIGSUB  12        0    5.19770E+04     7.800     0.000   138.410    40.494   111.688     0.000     1.284     0.000     1.303     0.000     0.238     0.028     0.011     0.000     0.046     0.019     0.000     0.000 .00000E+00 0.000E+00 0.000E+00 0.000E+00
BIGSUB  13        0    5.16410E+04    42.426     0.000   127.208    30.984    61.125     0.000     0.582     0.036     0.629     0.052     0.079     0.009     0.002     0.000     0.017     0.011     0.000     0.002 .00000E+00 0.000E+00 0.000E+00 0.000E+00
BIGSUB  14        0    5.52740E+04     7.800     0.000   138.467    39.071   109.806     0.000     1.906     0.000     1.943     0.002     0.209     0.024     0.015     0.000     0.041     0.038     0.001     0.000 .00000E+00 0.000E+00 0.000E+00 0.000E+00
BIGSUB  15        0    5.42200E+03    42.426     0.000   127.236    32.307    61.588     0.000     0.403     0.054     0.468     0.028     0.044     0.005     0.001     0.000     0.010     0.011     0.000     0.003 .00000E+00 0.000E+00 0.000E+00 0.000E+00
BIGSUB  16        0    5.13850E+04    42.426     0.000   127.259    37.050    59.564     0.000     0.000     0.000     0.013     0.000     0.000     0.000     0.000     0.000     0.000     0.013     0.000     0.000 .00000E+00 0.000E+00 0.000E+00 0.000E+00
BIGSUB  17        0    5.17180E+04     7.800     0.000   138.520    33.623    67.716     0.000     3.081     0.453     3.543     0.001     0.254     0.030     0.022     0.001     0.055     0.010     0.000     0.030 .00000E+00 0.000E+00 0.000E+00 0.000E+00
BIGSUB  18        0    5.26090E+04     7.800     0.000   138.503    41.653   130.128     0.000     0.846     0.000     0.874     0.001     0.025     0.003     0.007     0.000     0.006     0.028     0.000     0.000 .00000E+00 0.000E+00 0.000E+00 0.000E+00
BIGSUB  19        0    5.25380E+04     7.800     0.000   138.552    39.028   108.815     0.000     0.374     0.298     0.742     0.000     0.043     0.005     0.003     0.000     0.009     0.071     0.001     0.012 .00000E+00 0.000E+00 0.000E+00 0.000E+00
BIGSUB  20        0    5.19820E+04     7.800     0.000   138.566    38.203   102.025     0.000     0.488     0.417     0.987     0.000     0.068     0.008     0.004     0.000     0.014     0.081     0.001     0.016 .00000E+00 0.000E+00 0.000E+00 0.000E+00
BIGSUB   1        0    6.12360E+04     3.200     0.000   209.138    79.867     0.000     0.000     0.000     0.000     0.034     0.000     0.000     0.000     0.000     0.000     0.000     0.034     0.000     0.000 .00000E+00 0.000E+00 0.000E+00 0.000E+00
BIGSUB   2        0    6.37400E+03     3.200     0.000   209.116    78.405     0.000     0.000     0.000     0.000     0.065     0.000     0.000     0.000     0.000     0.000     0.000     0.065     0.000     0.000 .00000E+00 0.000E+00 0.000E+00 0.000E+00
BIGSUB   3        0    6.14590E+04     3.200     0.000   209.138    79.833     0.000     0.000     0.000     0.000     0.058     0.000     0.000     0.000     0.000     0.000     0.000     0.058     0.000     0.000 .00000E+00 0.000E+00 0.000E+00 0.000E+00
BIGSUB   4        0    6.91800E+03     3.200     0.000   209.135    79.894     0.000     0.000     0.000     0.000     0.035     0.000     0.000     0.000     0.000     0.000     0.000     0.035     0.000     0.000 .00000E+00 0.000E+00 0.000E+00 0.000E+00
BIGSUB   5        0    6.37770E+04     3.200     0.000   209.098    76.526     0.000     0.000     0.000     0.000     0.038     0.000     0.000     0.000     0.000     0.000     0.000     0.038     0.000     0.000 .00000E+00 0.000E+00 0.000E+00 0.000E+00
BIGSUB   6        0    6.18250E+04     3.200     0.000   209.052    71.687     0.000     0.000     0.000     0.000     0.063     0.000     0.000     0.000     0.000     0.000     0.000     0.063     0.001     0.000 .00000E+00 0.000E+00 0.000E+00 0.000E+00
BIGSUB   7        0    6.14660E+04     3.200     0.000   209.048    59.516     0.000     0.000     0.000     0.000     0.008     0.000     0.000     0.000     0.000     0.000     0.000     0.008     0.000     0.000 .00000E+00 0.000E+00 0.000E+00 0.000E+00
BIGSUB   8        0    6.34940E+04     3.200     0.000   208.953    60.905     0.000     0.000     0.000     0.000     0.038     0.000     0.000     0.000     0.000     0.000     0.000     0.038     0.000     0.000 .00000E+00 0.000E+00 0.000E+00 0.000E+00
BIGSUB   9        0    6.47420E+04     0.000     0.000   194.207    43.885    15.352     0.000     0.000     0.000     0.027     0.000     0.000     0.000     0.000     0.000     0.000     0.027     0.000     0.000 .00000E+00 0.000E+00 0.000E+00 0.000E+00
BIGSUB  10        0    6.13380E+04     0.000     0.000   194.144    39.305    21.700     0.000     0.000     0.000     0.020     0.000     0.000     0.000     0.000     0.000     0.000     0.020     0.000     0.000 .00000E+00 0.000E+00 0.000E+00 0.000E+00
BIGSUB  11        0    6.24060E+04     0.000     0.000   163.238    49.235    10.779     0.000     0.028     0.000     0.046     0.000     0.004     0.000     0.000     0.000     0.001     0.019     0.000     0.000 .00000E+00 0.000E+00 0.000E+00 0.000E+00
BIGSUB  12        0    6.19770E+04     0.000     0.000   178.358    50.177    61.510     0.000     0.000     0.000     0.016     0.000     0.000     0.000     0.000     0.000     0.000     0.016     0.000     0.000 .00000E+00 0.000E+00 0.000E+00 0.000E+00
BIGSUB  13        0    6.16410E+04     0.000     0.000   163.194    46.460    14.665     0.000     0.101     0.000     0.111     0.000     0.012     0.001     0.000     0.000     0.003     0.010     0.000     0.000 .00000E+00 0.000E+00 0.000E+00 0.000E+00
BIGSUB  14        0    6.52740E+04     0.000     0.000   178.273    46.931    62.874     0.000     0.000     0.000     0.031     0.000     0.000     0.000     0.000     0.000     0.000     0.031     0.001     0.000 .00000E+00 0.000E+00 0.000E+00 0.000E+00
BIGSUB  15        0    6.42200E+03     0.000     0.000   163.150    46.368    15.220     0.000     0.009     0.000     0.020     0.000     0.001     0.000     0.000     0.000     0.000     0.011     0.000     0.000 .00000E+00 0.000E+00 0.000E+00 0.000E+00
BIGSUB  16        0    6.13850E+04     0.000     0.000   163.112    50.411     9.153     0.000     0.000     0.000     0.013     0.000     0.000     0.000     0.000     0.000     0.000     0.013     0.000     0.000 .00000E+00 0.000E+00 0.000E+00 0.000E+00
BIGSUB  17        0    6.17180E+04     0.000     0.000   178.180    43.078    24.638     0.000     0.000     0.000     0.009     0.000     0.000     0.000     0.000     0.000     0.000     0.009     0.000     0.000 .00000E+00 0.000E+00 0.000E+00 0.000E+00
BIGSUB  18        0    6.26090E+04     0.000     0.000   178.211    48.703    81.425     0.000     0.000     0.000     0.023     0.000     0.000     0.000     0.000     0.000     0.000     0.023     0.000     0.000 .00000E+00 0.000E+00 0.000E+00 0.000E+00
BIGSUB  19        0    6.25380E+04     0.000     0.000   178.116    46.833    61.982     0.000     0.000     0.000     0.036     0.000     0.000     0.000     0.000     0.000     0.000     0.036     0.001     0.000 .00000E+00 0.000E+00 0.000E+00 0.000E+00
BIGSUB  20        0    6.19820E+04     0.000     0.000   178.086    46.244    55.781     0.000     0.000     0.000     0.040     0.000     0.000     0.000     0.000     0.000     0.000     0.040     0.001     0.000 .00000E+00 0.000E+00 0.000E+00 0.000E+00
BIGSUB   1        0    7.12360E+04     0.000     0.000   212.019     0.000     0.000     0.000     0.000     0.000     0.022     0.000     0.000     0.000     0.000     0.000     0.000     0.022     0.000     0.000 .00000E+00 0.000E+00 0.000E+00 0.000E+00
BIGSUB   2        0    7.37400E+03     0.000     0.000   212.020     0.000     0.000     0.000     0.000     0.000     0.037     0.000     0.000     0.000     0.000     0.000     0.000     0.037     0.000     0.000 .00000E+00 0.000E+00 0.000E+00 0.000E+00
BIGSUB   3        0    7.14590E+04     0.000     0.000   212.019     0.000     0.000     0.000     0.000     0.000     0.044     0.000     0.000     0.000     0.000     0.000     0.000     0.044     0.000     0.000 .00000E+00 0.000E+00 0.000E+00 0.000E+00
BIGSUB   4        0    7.91800E+03     0.000     0.000   212.019     0.000     0.000     0.000     0.000     0.000     0.023     0.000     0.000     0.000     0.000     0.000     0.000     0.023     0.000     0.000 .00000E+00 0.000E+00 0.000E+00 0.000E+00
BIGSUB   5        0    7.37770E+04     0.000     0.000   212.020     0.000     0.000     0.000     0.000     0.000     0.028     0.000     0.000     0.000     0.000     0.000     0.000     0.028     0.000     0.000 .00000E+00 0.000E+00 0.000E+00 0.000E+00
BIGSUB   6        0    7.18250E+04     0.000     0.000   212.020     0.000     0.000     0.000     0.000     0.000     0.050     0.000     0.000     0.000     0.000     0.000     0.000     0.050     0.000     0.000 .00000E+00 0.000E+00 0.000E+00 0.000E+00
BIGSUB   7        0    7.14660E+04     0.000     0.000   212.020     0.000     0.000     0.000     0.000     0.000     0.008     0.000     0.000     0.000     0.000     0.000     0.000     0.008     0.000     0.000 .00000E+00 0.000E+00 0.000E+00 0.000E+00
BIGSUB   8        0    7.34940E+04     0.000     0.000   212.012     0.000     0.000     0.000     0.000     0.000     0.026     0.000     0.000     0.000     0.000     0.000     0.000     0.026     0.000     0.000 .00000E+00 0.000E+00 0.000E+00 0.000E+00
BIGSUB   9        0    7.47420E+04     1.000     0.000   196.409    16.352     0.000     0.000     0.000     0.000     0.015     0.000     0.000     0.000     0.000     0.000     0.000     0.015     0.000     0.000 .00000E+00 0.000E+00 0.000E+00 0.000E+00
BIGSUB  10        0    7.13380E+04     1.000     0.000   196.401    22.701     0.000     0.000     0.000     0.000     0.018     0.000     0.000     0.000     0.000     0.000     0.000     0.018     0.000     0.000 .00000E+00 0.000E+00 0.000E+00 0.000E+00
BIGSUB  11        0    7.24060E+04     9.668     0.000   180.777    20.444     0.000     0.000     0.000     0.000     0.017     0.000     0.000     0.000     0.000     0.000     0.000     0.017     0.000     0.000 .00000E+00 0.000E+00 0.000E+00 0.000E+00
BIGSUB  12        0    7.19770E+04     0.200     0.000   186.728    61.710     0.000     0.000     0.000     0.000     0.015     0.000     0.000     0.000     0.000     0.000     0.000     0.015     0.000     0.000 .00000E+00 0.000E+00 0.000E+00 0.000E+00
BIGSUB  13        0    7.16410E+04     9.668     0.000   180.767    24.331     0.000     0.000     0.000     0.000     0.010     0.000     0.000     0.000     0.000     0.000     0.000     0.010     0.000     0.000 .00000E+00 0.000E+00 0.000E+00 0.000E+00
BIGSUB  14        0    7.52740E+04     0.200     0.000   186.711    63.074     0.000     0.000     0.000     0.000     0.027     0.000     0.000     0.000     0.000     0.000     0.000     0.027     0.001     0.000 .00000E+00 0.000E+00 0.000E+00 0.000E+00
BIGSUB  15        0    7.42200E+03     9.668     0.000   180.756    24.886     0.000     0.000     0.000     0.000     0.010     0.000     0.000     0.000     0.000     0.000     0.000     0.010     0.000     0.000 .00000E+00 0.000E+00 0.000E+00 0.000E+00
BIGSUB  16        0    7.13850E+04     9.668     0.000   180.745    18.819     0.000     0.000     0.000     0.000     0.012     0.000     0.000     0.000     0.000     0.000     0.000     0.012     0.000     0.000 .00000E+00 0.000E+00 0.000E+00 0.000E+00
BIGSUB  17        0    7.17180E+04     0.200     0.000   186.687    24.839     0.000     0.000     0.000     0.000     0.008     0.000     0.000     0.000     0.000     0.000     0.000     0.008     0.000     0.000 .00000E+00 0.000E+00 0.000E+00 0.000E+00
BIGSUB  18        0    7.26090E+04     0.200     0.000   186.696    81.625     0.000     0.000     0.000     0.000     0.021     0.000     0.000     0.000     0.000     0.000     0.000     0.021     0.000     0.000 .00000E+00 0.000E+00 0.000E+00 0.000E+00
BIGSUB  19        0    7.25380E+04     0.200     0.000   186.668    62.182     0.000     0.000     0.000     0.000     0.021     0.000     0.000     0.000     0.000     0.000     0.000     0.021     0.000     0.000 .00000E+00 0.000E+00 0.000E+00 0.000E+00
BIGSUB  20        0    7.19820E+04     0.200     0.000   186.659    55.981     0.000     0.000     0.000     0.000     0.022     0.000     0.000     0.000     0.000     0.000     0.000     0.022     0.000     0.000 .00000E+00 0.000E+00 0.000E+00 0.000E+00
BIGSUB   1        0    8.12360E+04     0.000     0.000   189.929     0.000     0.000     0.000     0.000     0.000     0.014     0.000     0.000     0.000     0.000     0.000     0.000     0.014     0.000     0.000 .00000E+00 0.000E+00 0.000E+00 0.000E+00
BIGSUB   2        0    8.37400E+03     0.000     0.000   190.021     0.000     0.000     0.000     0.000     0.000     0.022     0.000     0.000     0.000     0.000     0.000     0.000     0.022     0.000     0.000 .00000E+00 0.000E+00 0.000E+00 0.000E+00
BIGSUB   3        0    8.14590E+04     0.000     0.000   189.927     0.000     0.000     0.000     0.000     0.000     0.034     0.000     0.000     0.000     0.000     0.000     0.000     0.034     0.000     0.000 .00000E+00 0.000E+00 0.000E+00 0.000E+00
BIGSUB   4        0    8.91800E+03     0.000     0.000   189.943     0.000     0.000     0.000     0.000     0.000     0.015     0.000     0.000     0.000     0.000     0.000     0.000     0.015     0.000     0.000 .00000E+00 0.000E+00 0.000E+00 0.000E+00
BIGSUB   5        0    8.37770E+04     0.000     0.000   190.092     0.000     0.000     0.000     0.000     0.000     0.020     0.000     0.000     0.000     0.000     0.000     0.000     0.020     0.000     0.000 .00000E+00 0.000E+00 0.000E+00 0.000E+00
BIGSUB   6        0    8.18250E+04     0.000     0.000   190.268     0.000     0.000     0.000     0.000     0.000     0.039     0.000     0.000     0.000     0.000     0.000     0.000     0.038     0.000     0.000 .00000E+00 0.000E+00 0.000E+00 0.000E+00
BIGSUB   7        0    8.14660E+04     0.000     0.000   190.284     0.000     0.000     0.000     0.000     0.000     0.007     0.000     0.000     0.000     0.000     0.000     0.000     0.007     0.000     0.000 .00000E+00 0.000E+00 0.000E+00 0.000E+00
BIGSUB   8        0    8.34940E+04     0.000     0.000   190.617     0.000     0.000     0.000     0.000     0.000     0.017     0.000     0.000     0.000     0.000     0.000     0.000     0.017     0.000     0.000 .00000E+00 0.000E+00 0.000E+00 0.000E+00
BIGSUB   9        0    8.47420E+04     0.500     0.000   187.150     0.500     0.000     0.000     0.000     0.000     0.010     0.000     0.000     0.000     0.000     0.000     0.000     0.010     0.000     0.000 .00000E+00 0.000E+00 0.000E+00 0.000E+00
BIGSUB  10        0    8.13380E+04     0.500     0.000   187.362     0.500     0.000     0.000     0.000     0.000     0.016     0.000     0.000     0.000     0.000     0.000     0.000     0.016     0.000     0.000 .00000E+00 0.000E+00 0.000E+00 0.000E+00
BIGSUB  11        0    8.24060E+04     0.000     0.000   176.056     0.000     0.000     0.000     0.000     0.000     0.015     0.000     0.000     0.000     0.000     0.000     0.000     0.015     0.000     0.000 .00000E+00 0.000E+00 0.000E+00 0.000E+00
BIGSUB  12        0    8.19770E+04     0.000     0.000   180.679     0.000     0.000     0.000     0.000     0.000     0.013     0.000     0.000     0.000     0.000     0.000     0.000     0.013     0.000     0.000 .00000E+00 0.000E+00 0.000E+00 0.000E+00
BIGSUB  13        0    8.16410E+04     0.000     0.000   176.210     0.000     0.000     0.000     0.000     0.000     0.009     0.000     0.000     0.000     0.000     0.000     0.000     0.009     0.000     0.000 .00000E+00 0.000E+00 0.000E+00 0.000E+00
BIGSUB  14        0    8.52740E+04     0.000     0.000   180.945     0.000     0.000     0.000     0.000     0.000     0.022     0.000     0.000     0.000     0.000     0.000     0.000     0.022     0.000     0.000 .00000E+00 0.000E+00 0.000E+00 0.000E+00
BIGSUB  15        0    8.42200E+03     0.000     0.000   176.352     0.000     0.000     0.000     0.000     0.000     0.009     0.000     0.000     0.000     0.000     0.000     0.000     0.009     0.000     0.000 .00000E+00 0.000E+00 0.000E+00 0.000E+00
BIGSUB  16        0    8.13850E+04     0.000     0.000   176.472     0.000     0.000     0.000     0.000     0.000     0.010     0.000     0.000     0.000     0.000     0.000     0.000     0.010     0.000     0.000 .00000E+00 0.000E+00 0.000E+00 0.000E+00
BIGSUB  17        0    8.17180E+04     0.000     0.000   181.211     0.000     0.000     0.000     0.000     0.000     0.008     0.000     0.000     0.000     0.000     0.000     0.000     0.008     0.000     0.000 .00000E+00 0.000E+00 0.000E+00 0.000E+00
BIGSUB  18        0    8.26090E+04     0.000     0.000   181.126     0.000     0.000     0.000     0.000     0.000     0.018     0.000     0.000     0.000     0.000     0.000     0.000     0.018     0.000     0.000 .00000E+00 0.000E+00 0.000E+00 0.000E+00
BIGSUB  19        0    8.25380E+04     0.000     0.000   181.382     0.000     0.000     0.000     0.000     0.000     0.013     0.000     0.000     0.000     0.000     0.000     0.000     0.013     0.000     0.000 .00000E+00 0.000E+00 0.000E+00 0.000E+00
BIGSUB  20        0    8.19820E+04     0.000     0.000   181.460     0.000     0.000     0.000     0.000     0.000     0.013     0.000     0.000     0.000     0.000     0.000     0.000     0.013     0.000     0.000 .00000E+00 0.000E+00 0.000E+00 0.000E+00
BIGSUB   1        0    9.12360E+04     0.000     0.000   154.252     0.000     0.000     0.000     0.000     0.000     0.010     0.000     0.000     0.000     0.000     0.000     0.000     0.010     0.000     0.000 .00000E+00 0.000E+00 0.000E+00 0.000E+00
BIGSUB   2        0    9.37400E+03     0.000     0.000   154.449     0.000     0.000     0.000     0.000     0.000     0.018     0.000     0.000     0.000     0.000     0.000     0.000     0.018     0.000     0.000 .00000E+00 0.000E+00 0.000E+00 0.000E+00
BIGSUB   3        0    9.14590E+04     0.000     0.000   154.247     0.000     0.000     0.000     0.000     0.000     0.027     0.000     0.000     0.000     0.000     0.000     0.000     0.027     0.000     0.000 .00000E+00 0.000E+00 0.000E+00 0.000E+00
BIGSUB   4        0    9.91800E+03     0.000     0.000   154.282     0.000     0.000     0.000     0.000     0.000     0.011     0.000     0.000     0.000     0.000     0.000     0.000     0.011     0.000     0.000 .00000E+00 0.000E+00 0.000E+00 0.000E+00
BIGSUB   5        0    9.37770E+04     0.000     0.000   154.602     0.000     0.000     0.000     0.000     0.000     0.015     0.000     0.000     0.000     0.000     0.000     0.000     0.015     0.000     0.000 .00000E+00 0.000E+00 0.000E+00 0.000E+00
BIGSUB   6        0    9.18250E+04     0.000     0.000   154.982     0.000     0.000     0.000     0.000     0.000     0.029     0.000     0.000     0.000     0.000     0.000     0.000     0.029     0.000     0.000 .00000E+00 0.000E+00 0.000E+00 0.000E+00
BIGSUB   7        0    9.14660E+04     0.000     0.000   155.018     0.000     0.000     0.000     0.000     0.000     0.006     0.000     0.000     0.000     0.000     0.000     0.000     0.006     0.000     0.000 .00000E+00 0.000E+00 0.000E+00 0.000E+00
BIGSUB   8        0    9.34940E+04     0.000     0.000   155.749     0.000     0.000     0.000     0.000     0.000     0.012     0.000     0.000     0.000     0.000     0.000     0.000     0.012     0.000     0.000 .00000E+00 0.000E+00 0.000E+00 0.000E+00
BIGSUB   9        0    9.47420E+04     0.000     0.000   151.075     0.000     0.000     0.000     0.000     0.000     0.007     0.000     0.000     0.000     0.000     0.000     0.000     0.007     0.000     0.000 .00000E+00 0.000E+00 0.000E+00 0.000E+00
BIGSUB  10        0    9.13380E+04     0.000     0.000   151.541     0.000     0.000     0.000     0.000     0.000     0.013     0.000     0.000     0.000     0.000     0.000     0.000     0.013     0.000     0.000 .00000E+00 0.000E+00 0.000E+00 0.000E+00
BIGSUB  11        0    9.24060E+04     1.380     0.000   121.829     1.380     0.000     0.000     0.000     0.000     0.012     0.000     0.000     0.000     0.000     0.000     0.000     0.012     0.000     0.000 .00000E+00 0.000E+00 0.000E+00 0.000E+00
BIGSUB  12        0    9.19770E+04     0.000     0.000   137.300     0.000     0.000     0.000     0.000     0.000     0.011     0.000     0.000     0.000     0.000     0.000     0.000     0.011     0.000     0.000 .00000E+00 0.000E+00 0.000E+00 0.000E+00
BIGSUB  13        0    9.16410E+04     1.380     0.000   122.115     1.380     0.000     0.000     0.000     0.000     0.008     0.000     0.000     0.000     0.000     0.000     0.000     0.008     0.000     0.000 .00000E+00 0.000E+00 0.000E+00 0.000E+00
BIGSUB  14        0    9.52740E+04     0.000     0.000   137.661     0.000     0.000     0.000     0.000     0.000     0.018     0.000     0.000     0.000     0.000     0.000     0.000     0.018     0.000     0.000 .00000E+00 0.000E+00 0.000E+00 0.000E+00
BIGSUB  15        0    9.42200E+03     1.380     0.000   122.381     1.380     0.000     0.000     0.000     0.000     0.008     0.000     0.000     0.000     0.000     0.000     0.000     0.008     0.000     0.000 .00000E+00 0.000E+00 0.000E+00 0.000E+00
BIGSUB  16        0    9.13850E+04     1.380     0.000   122.608     1.380     0.000     0.000     0.000     0.000     0.009     0.000     0.000     0.000     0.000     0.000     0.000     0.009     0.000     0.000 .00000E+00 0.000E+00 0.000E+00 0.000E+00
BIGSUB  17        0    9.17180E+04     0.000     0.000   138.230     0.000     0.000     0.000     0.000     0.000     0.007     0.000     0.000     0.000     0.000     0.000     0.000     0.007     0.000     0.000 .00000E+00 0.000E+00 0.000E+00 0.000E+00
BIGSUB  18        0    9.26090E+04     0.000     0.000   138.047     0.000     0.000     0.000     0.000     0.000     0.015     0.000     0.000     0.000     0.000     0.000     0.000     0.015     0.000     0.000 .00000E+00 0.000E+00 0.000E+00 0.000E+00
BIGSUB  19        0    9.25380E+04     0.000     0.000   138.599     0.000     0.000     0.000     0.000     0.000     0.009     0.000     0.000     0.000     0.000     0.000     0.000     0.008     0.000     0.000 .00000E+00 0.000E+00 0.000E+00 0.000E+00
BIGSUB  20        0    9.19820E+04     0.000     0.000   138.769     0.000     0.000     0.000     0.000     0.000     0.009     0.000     0.000     0.000     0.000     0.000     0.000     0.009     0.000     0.000 .00000E+00 0.000E+00 0.000E+00 0.000E+00
BIGSUB   1        0   10.12360E+04    17.900     0.000    88.216     9.190     8.687     0.000     0.000     0.000     0.014     0.000     0.000     0.000     0.000     0.000     0.000     0.014     0.000     0.000 .00000E+00 0.000E+00 0.000E+00 0.000E+00
BIGSUB   2        0   10.37400E+03    17.900     0.000    88.421     9.198     8.598     0.000     0.000     0.000     0.072     0.000     0.000     0.000     0.000     0.000     0.000     0.072     0.000     0.000 .00000E+00 0.000E+00 0.000E+00 0.000E+00
BIGSUB   3        0   10.14590E+04    17.900     0.000    88.212     9.217     8.650     0.000     0.000     0.000     0.029     0.000     0.000     0.000     0.000     0.000     0.000     0.029     0.000     0.000 .00000E+00 0.000E+00 0.000E+00 0.000E+00
BIGSUB   4        0   10.91800E+03    17.900     0.000    88.247     9.203     8.674     0.000     0.000     0.000     0.015     0.000     0.000     0.000     0.000     0.000     0.000     0.015     0.000     0.000 .00000E+00 0.000E+00 0.000E+00 0.000E+00
BIGSUB   5        0   10.37770E+04    17.900     0.000    88.580     9.245     8.635     0.000     0.000     0.000     0.016     0.000     0.000     0.000     0.000     0.000     0.000     0.016     0.000     0.000 .00000E+00 0.000E+00 0.000E+00 0.000E+00
BIGSUB   6        0   10.18250E+04    17.900     0.000    88.976     9.337     8.535     0.000     0.000     0.000     0.026     0.000     0.000     0.000     0.000     0.000     0.000     0.026     0.000     0.000 .00000E+00 0.000E+00 0.000E+00 0.000E+00
BIGSUB   7        0   10.14660E+04    17.900     0.000    89.013     9.141     8.755     0.000     0.000     0.000     0.006     0.000     0.000     0.000     0.000     0.000     0.000     0.006     0.000     0.000 .00000E+00 0.000E+00 0.000E+00 0.000E+00
BIGSUB   8        0   10.34940E+04    17.900     0.000    89.777     9.207     8.668     0.000     0.000     0.000     0.016     0.000     0.000     0.000     0.000     0.000     0.000     0.016     0.000     0.000 .00000E+00 0.000E+00 0.000E+00 0.000E+00
BIGSUB   9        0   10.47420E+04    20.400     0.000    81.612    10.314    10.063     0.000     0.000     0.000     0.008     0.000     0.000     0.000     0.000     0.000     0.000     0.008     0.000     0.000 .00000E+00 0.000E+00 0.000E+00 0.000E+00
BIGSUB  10        0   10.13380E+04    20.400     0.000    82.069    10.037    10.348     0.000     0.000     0.000     0.012     0.000     0.000     0.000     0.000     0.000     0.000     0.012     0.000     0.000 .00000E+00 0.000E+00 0.000E+00 0.000E+00
BIGSUB  11        0   10.24060E+04    19.432     0.000    65.404    12.893     6.527     0.000     0.000     0.000     0.012     0.000     0.000     0.000     0.000     0.000     0.000     0.012     0.000     0.000 .00000E+00 0.000E+00 0.000E+00 0.000E+00
BIGSUB  12        0   10.19770E+04    18.400     0.000    73.005     6.525    11.867     0.000     0.000     0.000     0.010     0.000     0.000     0.000     0.000     0.000     0.000     0.010     0.000     0.000 .00000E+00 0.000E+00 0.000E+00 0.000E+00
BIGSUB  13        0   10.16410E+04    19.432     0.000    65.694    12.737     6.690     0.000     0.000     0.000     0.008     0.000     0.000     0.000     0.000     0.000     0.000     0.008     0.000     0.000 .00000E+00 0.000E+00 0.000E+00 0.000E+00
BIGSUB  14        0   10.52740E+04    18.400     0.000    73.547     6.722    11.663     0.000     0.000     0.000     0.016     0.000     0.000     0.000     0.000     0.000     0.000     0.016     0.000     0.000 .00000E+00 0.000E+00 0.000E+00 0.000E+00
BIGSUB  15        0   10.42200E+03    19.432     0.000    65.964    12.685     6.740     0.000     0.000     0.000     0.008     0.000     0.000     0.000     0.000     0.000     0.000     0.008     0.000     0.000 .00000E+00 0.000E+00 0.000E+00 0.000E+00
BIGSUB  16        0   10.13850E+04    19.432     0.000    66.195    13.029     6.395     0.000     0.000     0.000     0.008     0.000     0.000     0.000     0.000     0.000     0.000     0.008     0.000     0.000 .00000E+00 0.000E+00 0.000E+00 0.000E+00
BIGSUB  17        0   10.17180E+04    18.400     0.000    74.101     6.859    11.538     0.000     0.000     0.120     0.126     0.000     0.000     0.000     0.000     0.000     0.000     0.006     0.000     0.006 .00000E+00 0.000E+00 0.000E+00 0.000E+00
BIGSUB  18        0   10.26090E+04    18.400     0.000    73.922     6.703    11.685     0.000     0.000     0.000     0.014     0.000     0.000     0.000     0.000     0.000     0.000     0.014     0.000     0.000 .00000E+00 0.000E+00 0.000E+00 0.000E+00
BIGSUB  19        0   10.25380E+04    18.400     0.000    74.462     6.802    11.577     0.000     0.000     0.112     0.121     0.000     0.000     0.000     0.000     0.000     0.000     0.009     0.000     0.003 .00000E+00 0.000E+00 0.000E+00 0.000E+00
BIGSUB  20        0   10.19820E+04    18.400     0.000    74.629     6.831    11.544     0.000     0.000     0.159     0.168     0.000     0.000     0.000     0.000     0.000     0.000     0.009     0.000     0.004 .00000E+00 0.000E+00 0.000E+00 0.000E+00
BIGSUB   1        0   11.12360E+04    13.000     0.000    54.578     7.499    14.168     0.000     0.000     0.000     0.020     0.000     0.000     0.000     0.000     0.000     0.000     0.020     0.000     0.000 .00000E+00 0.000E+00 0.000E+00 0.000E+00
BIGSUB   2        0   11.37400E+03    13.000     0.000    54.774     7.418    14.085     0.000     0.000     0.000     0.108     0.000     0.000     0.000     0.000     0.000     0.000     0.108     0.000     0.000 .00000E+00 0.000E+00 0.000E+00 0.000E+00
BIGSUB   3        0   11.14590E+04    13.000     0.000    54.573     7.306    14.313     0.000     0.000     0.000     0.034     0.000     0.000     0.000     0.000     0.000     0.000     0.034     0.000     0.000 .00000E+00 0.000E+00 0.000E+00 0.000E+00
BIGSUB   4        0   11.91800E+03    13.000     0.000    54.607     7.425    14.228     0.000     0.000     0.000     0.021     0.000     0.000     0.000     0.000     0.000     0.000     0.021     0.000     0.000 .00000E+00 0.000E+00 0.000E+00 0.000E+00
BIGSUB   5        0   11.37770E+04    13.000     0.000    54.927     7.333    14.282     0.000     0.000     0.000     0.020     0.000     0.000     0.000     0.000     0.000     0.000     0.020     0.000     0.000 .00000E+00 0.000E+00 0.000E+00 0.000E+00
BIGSUB   6        0   11.18250E+04    13.000     0.000    55.309     7.273    14.234     0.000     0.000     0.000     0.027     0.000     0.000     0.000     0.000     0.000     0.000     0.027     0.000     0.000 .00000E+00 0.000E+00 0.000E+00 0.000E+00
BIGSUB   7        0   11.14660E+04    13.000     0.000    55.344     8.609    13.142     0.000     0.000     0.000     0.006     0.000     0.000     0.000     0.000     0.000     0.000     0.006     0.000     0.000 .00000E+00 0.000E+00 0.000E+00 0.000E+00
BIGSUB   8        0   11.34940E+04    13.000     0.000    56.082     8.375    13.271     0.000     0.000     0.000     0.022     0.000     0.000     0.000     0.000     0.000     0.000     0.022     0.000     0.000 .00000E+00 0.000E+00 0.000E+00 0.000E+00
BIGSUB   9        0   11.47420E+04     0.800     0.000    51.550    10.864     0.000     0.000     0.000     0.000     0.012     0.000     0.000     0.000     0.000     0.000     0.000     0.012     0.000     0.000 .00000E+00 0.000E+00 0.000E+00 0.000E+00
BIGSUB  10        0   11.13380E+04     0.800     0.000    52.001    11.148     0.000     0.000     0.000     0.000     0.012     0.000     0.000     0.000     0.000     0.000     0.000     0.012     0.000     0.000 .00000E+00 0.000E+00 0.000E+00 0.000E+00
BIGSUB  11        0   11.24060E+04   110.416    10.535    36.286    29.757    85.801     0.000     1.078     0.000     1.099     0.010     0.020     0.002     0.003     0.000     0.004     0.022     0.000     0.000 .00000E+00 0.000E+00 0.000E+00 0.000E+00
BIGSUB  12        0   11.19770E+04     6.000     0.000    44.945    15.278     2.587     0.000     0.000     0.000     0.010     0.000     0.000     0.000     0.000     0.000     0.000     0.010     0.000     0.000 .00000E+00 0.000E+00 0.000E+00 0.000E+00
BIGSUB  13        0   11.16410E+04   110.416    10.535    36.535    29.476    85.082     0.000     2.063     0.106     2.180     0.012     0.031     0.004     0.005     0.000     0.007     0.010     0.000     0.004 .00000E+00 0.000E+00 0.000E+00 0.000E+00
BIGSUB  14        0   11.52740E+04     6.000     0.000    45.466    15.255     2.404     0.000     0.000     0.000     0.016     0.000     0.000     0.000     0.000     0.000     0.000     0.016     0.000     0.000 .00000E+00 0.000E+00 0.000E+00 0.000E+00
BIGSUB  15        0   11.42200E+03   110.416    10.535    36.767    29.771    85.741     0.000     1.382     0.159     1.554     0.006     0.013     0.002     0.003     0.000     0.003     0.013     0.000     0.006 .00000E+00 0.000E+00 0.000E+00 0.000E+00
BIGSUB  16        0   11.13850E+04   110.416    10.535    36.967    30.599    86.118     0.000     0.000     0.000     0.015     0.000     0.000     0.000     0.000     0.000     0.000     0.015     0.000     0.000 .00000E+00 0.000E+00 0.000E+00 0.000E+00
BIGSUB  17        0   11.17180E+04     6.000     0.000    46.001    13.625     3.912     0.000     0.000     0.818     0.824     0.000     0.000     0.000     0.000     0.000     0.000     0.006     0.000     0.037 .00000E+00 0.000E+00 0.000E+00 0.000E+00
BIGSUB  18        0   11.26090E+04     6.000     0.000    45.828    16.148     1.534     0.000     0.000     0.000     0.013     0.000     0.000     0.000     0.000     0.000     0.000     0.013     0.000     0.000 .00000E+00 0.000E+00 0.000E+00 0.000E+00
BIGSUB  19        0   11.25380E+04     6.000     0.000    46.349    15.417     2.153     0.000     0.000     0.435     0.451     0.000     0.000     0.000     0.000     0.000     0.000     0.016     0.000     0.011 .00000E+00 0.000E+00 0.000E+00 0.000E+00
BIGSUB  20        0   11.19820E+04     6.000     0.000    46.511    15.132     2.405     0.000     0.000     0.595     0.614     0.000     0.000     0.000     0.000     0.000     0.000     0.018     0.000     0.016 .00000E+00 0.000E+00 0.000E+00 0.000E+00
BIGSUB   1        0   12.12360E+04    39.000     0.000    27.257     7.547    34.574     0.000     0.000     0.000     0.029     0.000     0.000     0.000     0.000     0.000     0.000     0.028     0.000     0.000 .00000E+00 0.000E+00 0.000E+00 0.000E+00
BIGSUB   2        0   12.37400E+03    39.000     0.000    27.379     7.380    34.489     0.000     0.000     0.000     0.162     0.000     0.000     0.000     0.000     0.000     0.000     0.162     0.000     0.000 .00000E+00 0.000E+00 0.000E+00 0.000E+00
BIGSUB   3        0   12.14590E+04    39.000     0.000    27.255     7.118    35.126     0.000     0.000     0.000     0.042     0.000     0.000     0.000     0.000     0.000     0.000     0.042     0.000     0.000 .00000E+00 0.000E+00 0.000E+00 0.000E+00
BIGSUB   4        0   12.91800E+03    39.000     0.000    27.276     7.380    34.802     0.000     0.000     0.000     0.029     0.000     0.000     0.000     0.000     0.000     0.000     0.029     0.000     0.000 .00000E+00 0.000E+00 0.000E+00 0.000E+00
BIGSUB   5        0   12.37770E+04    39.000     0.000    27.473     7.149    35.089     0.000     0.000     0.000     0.026     0.000     0.000     0.000     0.000     0.000     0.000     0.026     0.000     0.000 .00000E+00 0.000E+00 0.000E+00 0.000E+00
BIGSUB   6        0   12.18250E+04    39.000     0.000    27.709     6.937    35.236     0.000     0.000     0.000     0.032     0.000     0.000     0.000     0.000     0.000     0.000     0.032     0.000     0.000 .00000E+00 0.000E+00 0.000E+00 0.000E+00
BIGSUB   7        0   12.14660E+04    39.000     0.000    27.731     8.855    32.277     0.000     0.000     0.000     0.006     0.000     0.000     0.000     0.000     0.000     0.000     0.006     0.000     0.000 .00000E+00 0.000E+00 0.000E+00 0.000E+00
BIGSUB   8        0   12.34940E+04    39.000     0.000    28.187     8.646    32.573     0.000     0.000     0.000     0.030     0.000     0.000     0.000     0.000     0.000     0.000     0.030     0.000     0.000 .00000E+00 0.000E+00 0.000E+00 0.000E+00
BIGSUB   9        0   12.47420E+04    15.300     0.100    28.129     3.384     1.514     0.000     0.000     0.000     0.009     0.000     0.000     0.000     0.000     0.000     0.000     0.008     0.000     0.000 .00000E+00 0.000E+00 0.000E+00 0.000E+00
BIGSUB  10        0   12.13380E+04    15.300     0.100    28.431     3.342     1.558     0.000     0.000     0.000     0.011     0.000     0.000     0.000     0.000     0.000     0.000     0.011     0.000     0.000 .00000E+00 0.000E+00 0.000E+00 0.000E+00
BIGSUB  11        0   12.24060E+04    22.312    16.670    21.931    16.779    85.205     0.000     5.929     0.247     6.201     0.080     0.183     0.021     0.032     0.001     0.040     0.026     0.000     0.008 .00000E+00 0.000E+00 0.000E+00 0.000E+00
BIGSUB  12        0   12.19770E+04    20.900     1.500    24.144     4.488     0.999     0.000     0.000     0.000     0.009     0.000     0.000     0.000     0.000     0.000     0.000     0.009     0.000     0.000 .00000E+00 0.000E+00 0.000E+00 0.000E+00
BIGSUB  13        0   12.16410E+04    22.312    16.667    22.113    16.252    83.140     0.000     7.772     0.656     8.440     0.072     0.181     0.021     0.039     0.001     0.039     0.012     0.000     0.022 .00000E+00 0.000E+00 0.000E+00 0.000E+00
BIGSUB  14        0   12.52740E+04    20.900     1.500    24.488     4.510     0.795     0.000     0.000     0.068     0.082     0.000     0.000     0.000     0.000     0.000     0.000     0.014     0.000     0.002 .00000E+00 0.000E+00 0.000E+00 0.000E+00
BIGSUB  15        0   12.42200E+03    22.312    16.664    22.284    16.606    84.509     0.000     6.808     0.506     7.329     0.063     0.133     0.016     0.034     0.001     0.029     0.015     0.000     0.017 .00000E+00 0.000E+00 0.000E+00 0.000E+00
BIGSUB  16        0   12.13850E+04    22.312    16.662    22.431    17.626    86.954     0.000     3.668     0.000     3.686     0.026     0.069     0.008     0.021     0.001     0.016     0.018     0.000     0.000 .00000E+00 0.000E+00 0.000E+00 0.000E+00
BIGSUB  17        0   12.17180E+04    20.900     1.500    24.842     6.422     0.389     0.000     0.000     1.135     1.141     0.000     0.000     0.000     0.000     0.000     0.000     0.006     0.000     0.047 .00000E+00 0.000E+00 0.000E+00 0.000E+00
BIGSUB  18        0   12.26090E+04    20.900     1.500    24.728     3.455     0.979     0.000     0.000     0.000     0.012     0.000     0.000     0.000     0.000     0.000     0.000     0.012     0.000     0.000 .00000E+00 0.000E+00 0.000E+00 0.000E+00
BIGSUB  19        0   12.25380E+04    20.900     1.500    25.073     4.287     0.766     0.000     0.000     0.583     0.594     0.000     0.000     0.000     0.000     0.000     0.000     0.011     0.000     0.014 .00000E+00 0.000E+00 0.000E+00 0.000E+00
BIGSUB  20        0   12.19820E+04    20.900     1.500    25.180     4.612     0.692     0.000     0.000     0.796     0.808     0.000     0.000     0.000     0.000     0.000     0.000     0.012     0.000     0.019 .00000E+00 0.000E+00 0.000E+00 0.000E+00
BIGSUB   1        0 1990.12360E+04   289.400    61.825  1311.747   262.916    34.574     0.000    14.279     0.000    14.741     3.429     4.189     0.496     0.058     0.003     1.014     0.462     0.003     0.000 .00000E+00 0.000E+00 0.000E+00 0.000E+00
BIGSUB   2        0 1990.37400E+03   289.400    61.823  1312.892   261.240    34.489     0.000    14.420     0.000    16.518     9.750     6.951     0.818     0.054     0.002     1.725     2.099     0.013     0.000 .00000E+00 0.000E+00 0.000E+00 0.000E+00
BIGSUB   3        0 1990.14590E+04   289.400    61.825  1311.723   262.715    35.126     0.000    14.911     0.000    15.594     5.805     5.429     0.639     0.048     0.003     1.427     0.683     0.005     0.000 .00000E+00 0.000E+00 0.000E+00 0.000E+00
BIGSUB   4        0 1990.91800E+03   289.400    61.825  1311.922   262.918    34.802     0.000    14.709     0.000    15.170     4.713     4.602     0.544     0.054     0.003     1.138     0.461     0.003     0.000 .00000E+00 0.000E+00 0.000E+00 0.000E+00
BIGSUB   5        0 1990.37770E+04   289.400    61.820  1313.779   260.001    35.089     0.000    17.031     0.000    17.468     2.941     5.306     0.629     0.060     0.003     1.187     0.437     0.003     0.000 .00000E+00 0.000E+00 0.000E+00 0.000E+00
BIGSUB   6        0 1990.18250E+04   289.400    61.815  1315.986   255.621    35.236     0.000    20.488     0.000    21.096     4.861     6.538     0.782     0.059     0.004     1.487     0.608     0.005     0.000 .00000E+00 0.000E+00 0.000E+00 0.000E+00
BIGSUB   7        0 1990.14660E+04   289.400    61.814  1316.192   236.069    32.277     0.000    38.826     0.000    38.914     3.747     8.156     0.973     0.174     0.007     1.812     0.089     0.001     0.000 .00000E+00 0.000E+00 0.000E+00 0.000E+00
BIGSUB   8        0 1990.34940E+04   289.400    61.804  1320.412   242.348    32.573     0.000    34.034     0.000    34.516    13.205    12.703     1.489     0.137     0.005     2.691     0.482     0.004     0.000 .00000E+00 0.000E+00 0.000E+00 0.000E+00
BIGSUB   9        0 1990.47420E+04   222.400    50.186  1239.538   218.376     1.514     0.000     7.989     0.000     8.247     0.882     1.715     0.199     0.045     0.002     0.440     0.257     0.005     0.000 .00000E+00 0.000E+00 0.000E+00 0.000E+00
BIGSUB  10        0 1990.13380E+04   222.400    50.176  1242.149   212.312     1.558     0.000    12.706     0.000    12.885     4.280     5.458     0.646     0.087     0.003     1.217     0.179     0.004     0.000 .00000E+00 0.000E+00 0.000E+00 0.000E+00
BIGSUB  11        0 1990.24060E+04   329.184    90.047  1078.785   244.280    85.205     0.000    23.443     2.716    26.361     1.134     1.913     0.216     0.155     0.004     0.400     0.202     0.003     0.184 .00000E+00 0.000E+00 0.000E+00 0.000E+00
BIGSUB  12        0 1990.19770E+04   292.300   105.788  1132.693   275.578     0.999     0.000    45.035     0.000    45.193     1.631     6.068     0.698     0.194     0.010     1.165     0.158     0.003     0.000 .00000E+00 0.000E+00 0.000E+00 0.000E+00
BIGSUB  13        0 1990.16410E+04   329.184    90.042  1080.497   238.402    83.140     0.000    30.760     7.203    38.082     1.249     2.477     0.282     0.211     0.005     0.519     0.118     0.002     0.472 .00000E+00 0.000E+00 0.000E+00 0.000E+00
BIGSUB  14        0 1990.52740E+04   292.300   105.763  1135.523   271.396     0.795     5.256    40.508     0.175    40.972     1.884     5.814     0.669     0.201     0.009     1.152     0.289     0.005     0.004 .00000E+00 0.000E+00 0.000E+00 0.000E+00
BIGSUB  15        0 1990.42200E+03   329.184    90.037  1082.085   242.871    84.509     0.000    25.563     6.013    31.699     0.833     1.552     0.177     0.169     0.004     0.328     0.124     0.002     0.387 .00000E+00 0.000E+00 0.000E+00 0.000E+00
BIGSUB  16        0 1990.13850E+04   329.184    90.032  1083.443   251.228    86.954     0.000    14.921     0.279    15.340     0.187     0.516     0.057     0.094     0.003     0.119     0.140     0.002     0.012 .00000E+00 0.000E+00 0.000E+00 0.000E+00
BIGSUB  17        0 1990.17180E+04   292.300   105.737  1138.596   220.944     0.389    24.512    68.004     6.557    74.650     2.048     7.037     0.818     0.362     0.015     1.516     0.089     0.002     0.326 .00000E+00 0.000E+00 0.000E+00 0.000E+00
BIGSUB  18        0 1990.26090E+04   292.300   105.745  1137.606   295.351     0.979     0.000    23.703     0.000    23.925     0.345     1.333     0.150     0.091     0.006     0.335     0.222     0.004     0.000 .00000E+00 0.000E+00 0.000E+00 0.000E+00
BIGSUB  19        0 1990.25380E+04   292.300   105.720  1140.582   270.764     0.766    11.545    36.762     4.110    41.297     2.848     5.584     0.634     0.169     0.007     1.151     0.426     0.006     0.123 .00000E+00 0.000E+00 0.000E+00 0.000E+00
BIGSUB  20        0 1990.19820E+04   292.300   105.712  1141.498   262.564     0.692    15.555    40.364     5.628    46.482     3.030     6.398     0.727     0.190     0.008     1.321     0.490     0.008     0.169 .00000E+00 0.000E+00 0.000E+00 0.000E+00
BIGSUB   1        0    1.12360E+04    19.100    26.211    17.848     8.534    56.109     0.000     0.000     0.000     0.031     0.000     0.000     0.000     0.000     0.000     0.000     0.031     0.000     0.000 .00000E+00 0.000E+00 0.000E+00 0.000E+00
BIGSUB   2        0    1.37400E+03    19.100    26.207    17.919     8.482    55.960     0.000     0.000     0.000     0.149     0.000     0.000     0.000     0.000     0.000     0.000     0.149     0.001     0.000 .00000E+00 0.000E+00 0.000E+00 0.000E+00
BIGSUB   3        0    1.14590E+04    19.100    26.211    17.846     8.167    57.025     0.000     0.000     0.000     0.043     0.000     0.000     0.000     0.000     0.000     0.000     0.043     0.000     0.000 .00000E+00 0.000E+00 0.000E+00 0.000E+00
BIGSUB   4        0    1.91800E+03    19.100    26.210    17.859     8.392    56.480     0.000     0.000     0.000     0.031     0.000     0.000     0.000     0.000     0.000     0.000     0.031     0.000     0.000 .00000E+00 0.000E+00 0.000E+00 0.000E+00
BIGSUB   5        0    1.37770E+04    19.100    26.204    17.975     8.320    56.847     0.000     0.000     0.000     0.027     0.000     0.000     0.000     0.000     0.000     0.000     0.027     0.000     0.000 .00000E+00 0.000E+00 0.000E+00 0.000E+00
BIGSUB   6        0    1.18250E+04    19.100    26.198    18.114     8.173    57.141     0.000     0.001     0.000     0.032     0.000     0.000     0.000     0.000     0.000     0.000     0.032     0.000     0.000 .00000E+00 0.000E+00 0.000E+00 0.000E+00
BIGSUB   7        0    1.14660E+04    19.100    26.197    18.127     9.156    53.044     0.000     0.056     0.000     0.062     0.000     0.000     0.000     0.002     0.000     0.000     0.006     0.000     0.000 .00000E+00 0.000E+00 0.000E+00 0.000E+00
BIGSUB   8        0    1.34940E+04    19.100    26.184    18.396     9.215    51.602     0.000     1.443     0.000     1.476     0.319     0.387     0.045     0.011     0.000     0.083     0.033     0.000     0.000 .00000E+00 0.000E+00 0.000E+00 0.000E+00
BIGSUB   9        0    1.47420E+04    34.700    18.450    19.588     3.069    17.929     0.000     0.000     0.000     0.008     0.000     0.000     0.000     0.000     0.000     0.000     0.008     0.000     0.000 .00000E+00 0.000E+00 0.000E+00 0.000E+00
BIGSUB  10        0    1.13380E+04    34.700    18.450    19.780     3.330    17.727     0.000     0.000     0.000     0.010     0.000     0.000     0.000     0.000     0.000     0.000     0.010     0.000     0.000 .00000E+00 0.000E+00 0.000E+00 0.000E+00
BIGSUB  11        0    1.24060E+04    29.257     2.915    19.324     6.866    80.821     0.000     0.375     0.239     0.636     0.017     0.031     0.003     0.027     0.000     0.006     0.022     0.000     0.007 .00000E+00 0.000E+00 0.000E+00 0.000E+00
BIGSUB  12        0    1.19770E+04    38.200     3.825    14.975     3.164     1.660     0.000     0.000     0.000     0.008     0.000     0.000     0.000     0.000     0.000     0.000     0.008     0.000     0.000 .00000E+00 0.000E+00 0.000E+00 0.000E+00
BIGSUB  13        0    1.16410E+04    29.257     2.915    19.471     5.978    79.259     0.000     0.729     0.625     1.364     0.020     0.049     0.006     0.046     0.000     0.010     0.011     0.000     0.019 .00000E+00 0.000E+00 0.000E+00 0.000E+00
BIGSUB  14        0    1.52740E+04    38.200     3.825    15.072     2.630     1.989     0.000     0.000     0.228     0.239     0.000     0.000     0.000     0.000     0.000     0.000     0.012     0.000     0.006 .00000E+00 0.000E+00 0.000E+00 0.000E+00
BIGSUB  15        0    1.42200E+03    29.257     2.915    19.608     6.458    80.405     0.000     0.495     0.495     1.003     0.011     0.025     0.003     0.030     0.000     0.005     0.013     0.000     0.015 .00000E+00 0.000E+00 0.000E+00 0.000E+00
BIGSUB  16        0    1.13850E+04    29.257     2.915    19.726     7.804    82.031     0.000     0.013     0.000     0.028     0.000     0.000     0.000     0.004     0.000     0.000     0.015     0.000     0.000 .00000E+00 0.000E+00 0.000E+00 0.000E+00
BIGSUB  17        0    1.17180E+04    38.200     3.825    15.271     2.393     1.821     0.000     0.000     1.169     1.174     0.000     0.000     0.000     0.000     0.000     0.000     0.005     0.000     0.045 .00000E+00 0.000E+00 0.000E+00 0.000E+00
BIGSUB  18        0    1.26090E+04    38.200     3.825    15.207     2.696     2.108     0.000     0.000     0.000     0.010     0.000     0.000     0.000     0.000     0.000     0.000     0.010     0.000     0.000 .00000E+00 0.000E+00 0.000E+00 0.000E+00
BIGSUB  19        0    1.25380E+04    38.200     3.825    15.401     2.592     1.997     0.000     0.000     0.596     0.603     0.000     0.000     0.000     0.000     0.000     0.000     0.007     0.000     0.013 .00000E+00 0.000E+00 0.000E+00 0.000E+00
BIGSUB  20        0    1.19820E+04    38.200     3.825    15.461     2.556     1.959     0.000     0.000     0.812     0.820     0.000     0.000     0.000     0.000     0.000     0.000     0.008     0.000     0.018 .00000E+00 0.000E+00 0.000E+00 0.000E+00
BIGSUB   1        0    2.12360E+04    41.900    22.300    31.255    19.052    78.889     0.000     0.000     0.000     0.028     0.000     0.000     0.000     0.000     0.000     0.000     0.028     0.000     0.000 .00000E+00 0.000E+00 0.000E+00 0.000E+00
BIGSUB   2        0    2.37400E+03    41.900    22.300    31.343    19.242    78.308     0.000     0.000     0.000     0.128     0.000     0.000     0.000     0.000     0.000     0.000     0.128     0.001     0.000 .00000E+00 0.000E+00 0.000E+00 0.000E+00
BIGSUB   3        0    2.14590E+04    41.900    22.300    31.253    18.719    80.119     0.000     0.000     0.000     0.038     0.000     0.000     0.000     0.000     0.000     0.000     0.038     0.000     0.000 .00000E+00 0.000E+00 0.000E+00 0.000E+00
BIGSUB   4        0    2.91800E+03    41.900    22.300    31.268    18.924    79.390     0.000     0.000     0.000     0.028     0.000     0.000     0.000     0.000     0.000     0.000     0.028     0.000     0.000 .00000E+00 0.000E+00 0.000E+00 0.000E+00
BIGSUB   5        0    2.37770E+04    41.900    22.300    31.412    19.194    79.498     0.000     0.000     0.000     0.023     0.000     0.000     0.000     0.000     0.000     0.000     0.023     0.000     0.000 .00000E+00 0.000E+00 0.000E+00 0.000E+00
BIGSUB   6        0    2.18250E+04    41.900    22.300    31.584    19.064    79.911     0.000     0.000     0.000     0.026     0.000     0.000     0.000     0.000     0.000     0.000     0.026     0.000     0.000 .00000E+00 0.000E+00 0.000E+00 0.000E+00
BIGSUB   7        0    2.14660E+04    41.900    22.300    31.601    18.326    76.004     0.000     0.286     0.000     0.292     0.011     0.029     0.003     0.002     0.000     0.006     0.006     0.000     0.000 .00000E+00 0.000E+00 0.000E+00 0.000E+00
BIGSUB   8        0    2.34940E+04    41.900    22.300    31.731    19.054    68.426     0.000     5.517     0.000     5.546     1.066     1.390     0.163     0.029     0.001     0.300     0.029     0.000     0.000 .00000E+00 0.000E+00 0.000E+00 0.000E+00
BIGSUB   9        0    2.47420E+04    36.500    31.497    24.351    14.864    56.511     0.000     6.317     0.000     6.328     0.363     0.752     0.084     0.030     0.001     0.198     0.011     0.000     0.000 .00000E+00 0.000E+00 0.000E+00 0.000E+00
BIGSUB  10        0    2.13380E+04    36.500    31.484    24.516    16.514    45.471     0.000    17.017     0.000    17.027     2.712     4.513     0.513     0.089     0.003     0.934     0.010     0.000     0.000 .00000E+00 0.000E+00 0.000E+00 0.000E+00
BIGSUB  11        0    2.24060E+04    46.448    51.743    23.316    13.883    93.801     0.000    44.469     0.156    44.643     2.074     4.300     0.480     0.243     0.007     0.894     0.017     0.000     0.004 .00000E+00 0.000E+00 0.000E+00 0.000E+00
BIGSUB  12        0    2.19770E+04    56.500    68.625    17.346     6.535    90.935     0.000     1.373     0.000     1.379     0.014     0.053     0.006     0.004     0.000     0.010     0.006     0.000     0.000 .00000E+00 0.000E+00 0.000E+00 0.000E+00
BIGSUB  13        0    2.16410E+04    46.448    51.740    23.443    13.386    85.286     0.000    51.407     0.424    51.840     1.795     4.036     0.459     0.336     0.008     0.835     0.009     0.000     0.012 .00000E+00 0.000E+00 0.000E+00 0.000E+00
BIGSUB  14        0    2.52740E+04    56.500    68.625    17.503     5.990    90.029     0.000     2.574     0.148     2.732     0.151     0.351     0.039     0.007     0.001     0.064     0.010     0.000     0.003 .00000E+00 0.000E+00 0.000E+00 0.000E+00
BIGSUB  15        0    2.42200E+03    46.448    51.736    23.561    14.104    89.993     0.000    47.922     0.333    48.265     1.433     3.010     0.343     0.268     0.008     0.632     0.010     0.000     0.009 .00000E+00 0.000E+00 0.000E+00 0.000E+00
BIGSUB  16        0    2.13850E+04    46.448    51.733    23.662    14.768   103.640     0.000    35.324     0.000    35.336     0.883     2.225     0.248     0.116     0.007     0.517     0.012     0.000     0.000 .00000E+00 0.000E+00 0.000E+00 0.000E+00
BIGSUB  17        0    2.17180E+04    56.500    68.625    17.664     6.316    82.632     0.000     7.563     0.874     8.441     0.284     0.706     0.081     0.018     0.002     0.148     0.005     0.000     0.032 .00000E+00 0.000E+00 0.000E+00 0.000E+00
BIGSUB  18        0    2.26090E+04    56.500    68.625    17.612     5.908    93.200     0.000     0.558     0.000     0.567     0.008     0.022     0.002     0.002     0.000     0.005     0.009     0.000     0.000 .00000E+00 0.000E+00 0.000E+00 0.000E+00
BIGSUB  19        0    2.25380E+04    56.500    68.625    17.769     6.054    90.525     0.000     3.227     0.448     3.688     0.313     0.504     0.057     0.007     0.001     0.099     0.012     0.000     0.009 .00000E+00 0.000E+00 0.000E+00 0.000E+00
BIGSUB  20        0    2.19820E+04    56.500    68.625    17.817     6.105    89.590     0.000     3.916     0.612     4.543     0.318     0.572     0.065     0.009     0.001     0.113     0.015     0.000     0.013 .00000E+00 0.000E+00 0.000E+00 0.000E+00
BIGSUB   1        0    3.12360E+04    87.200    10.510    58.568    39.587   116.836     5.958     2.978     0.000     3.076     0.493     0.766     0.090     0.011     0.001     0.159     0.099     0.001     0.000 .00000E+00 0.000E+00 0.000E+00 0.000E+00
BIGSUB   2        0    3.37400E+03    87.200    10.509    58.665    39.787   117.792     3.965     2.552     0.000     3.295     1.132     1.033     0.121     0.010     0.000     0.216     0.743     0.008     0.000 .00000E+00 0.000E+00 0.000E+00 0.000E+00
BIGSUB   3        0    3.14590E+04    87.200    10.510    58.566    39.443   122.461     3.072     1.686     0.000     1.798     0.675     0.658     0.077     0.007     0.000     0.138     0.112     0.001     0.000 .00000E+00 0.000E+00 0.000E+00 0.000E+00
BIGSUB   4        0    3.91800E+03    87.200    10.510    58.583    39.540   119.134     4.798     2.522     0.000     2.617     0.625     0.750     0.088     0.009     0.000     0.157     0.095     0.001     0.000 .00000E+00 0.000E+00 0.000E+00 0.000E+00
BIGSUB   5        0    3.37770E+04    87.200    10.509    58.740    39.741   121.414     3.022     1.670     0.000     1.745     0.304     0.468     0.055     0.007     0.000     0.097     0.074     0.001     0.000 .00000E+00 0.000E+00 0.000E+00 0.000E+00
BIGSUB   6        0    3.18250E+04    87.200    10.507    58.926    39.773   124.096     0.767     1.558     0.000     1.629     0.811     0.521     0.064     0.005     0.000     0.115     0.071     0.001     0.000 .00000E+00 0.000E+00 0.000E+00 0.000E+00
BIGSUB   7        0    3.14660E+04    87.200    10.507    58.944    39.465    91.409    17.844    12.624     0.000    12.633     0.926     2.149     0.255     0.064     0.002     0.474     0.009     0.000     0.000 .00000E+00 0.000E+00 0.000E+00 0.000E+00
BIGSUB   8        0    3.34940E+04    87.200    10.504    59.303    39.729    97.989     8.592     8.280     0.000     8.373     3.507     3.015     0.354     0.040     0.001     0.643     0.093     0.001     0.000 .00000E+00 0.000E+00 0.000E+00 0.000E+00
BIGSUB   9        0    3.47420E+04    77.000    30.270    51.346    36.273    92.641     0.000     5.499     0.000     5.541     0.140     0.587     0.066     0.031     0.001     0.165     0.042     0.001     0.000 .00000E+00 0.000E+00 0.000E+00 0.000E+00
[...]
BIGSUB   3        0   11.14590E+04    30.200     5.400    38.527     9.271    22.312     0.000     0.000     0.000     0.024     0.000     0.000     0.000     0.000     0.000     0.000     0.024     0.000     0.000 .00000E+00 0.000E+00 0.000E+00 0.000E+00
BIGSUB   4        0   11.91800E+03    30.200     5.400    38.550     9.365    22.233     0.000     0.000     0.000     0.017     0.000     0.000     0.000     0.000     0.000     0.000     0.017     0.000     0.000 .00000E+00 0.000E+00 0.000E+00 0.000E+00
BIGSUB   5        0   11.37770E+04    30.200     5.400    38.771     9.508    22.090     0.000     0.000     0.000     0.015     0.000     0.000     0.000     0.000     0.000     0.000     0.015     0.000     0.000 .00000E+00 0.000E+00 0.000E+00 0.000E+00
BIGSUB   6        0   11.18250E+04    30.200     5.400    39.034     9.567    21.940     0.000     0.000     0.000     0.017     0.000     0.000     0.000     0.000     0.000     0.000     0.017     0.000     0.000 .00000E+00 0.000E+00 0.000E+00 0.000E+00
BIGSUB   7        0   11.14660E+04    30.200     5.400    39.059    10.073    21.913     0.000     0.000     0.000     0.004     0.000     0.000     0.000     0.000     0.000     0.000     0.004     0.000     0.000 .00000E+00 0.000E+00 0.000E+00 0.000E+00
BIGSUB   8        0   11.34940E+04    30.200     5.400    39.568    10.126    21.653     0.000     0.000     0.000     0.018     0.000     0.000     0.000     0.000     0.000     0.000     0.018     0.000     0.000 .00000E+00 0.000E+00 0.000E+00 0.000E+00
BIGSUB   9        0   11.47420E+04    24.100     5.400    41.873    13.933    20.556     0.000     0.000     0.000     0.022     0.000     0.000     0.000     0.000     0.000     0.000     0.022     0.000     0.000 .00000E+00 0.000E+00 0.000E+00 0.000E+00
BIGSUB  10        0   11.13380E+04    24.100     5.400    42.235    15.335    19.315     0.000     0.000     0.000     0.014     0.000     0.000     0.000     0.000     0.000     0.000     0.014     0.000     0.000 .00000E+00 0.000E+00 0.000E+00 0.000E+00
BIGSUB  11        0   11.24060E+04    39.900     0.700    37.806    13.634    32.310     0.000     0.000     0.000     0.010     0.000     0.000     0.000     0.000     0.000     0.000     0.010     0.000     0.000 .00000E+00 0.000E+00 0.000E+00 0.000E+00
BIGSUB  12        0   11.19770E+04    15.200     2.000    38.925    10.102    10.912     0.000     0.000     0.000     0.006     0.000     0.000     0.000     0.000     0.000     0.000     0.006     0.000     0.000 .00000E+00 0.000E+00 0.000E+00 0.000E+00
BIGSUB  13        0   11.16410E+04    39.900     0.700    38.057    15.671    30.374     0.000     0.000     0.000     0.006     0.000     0.000     0.000     0.000     0.000     0.000     0.006     0.000     0.000 .00000E+00 0.000E+00 0.000E+00 0.000E+00
BIGSUB  14        0   11.52740E+04    15.200     2.000    39.372    10.169    10.809     0.000     0.000     0.000     0.011     0.000     0.000     0.000     0.000     0.000     0.000     0.011     0.000     0.000 .00000E+00 0.000E+00 0.000E+00 0.000E+00
BIGSUB  15        0   11.42200E+03    39.900     0.700    38.292    14.939    31.062     0.000     0.000     0.000     0.006     0.000     0.000     0.000     0.000     0.000     0.000     0.006     0.000     0.000 .00000E+00 0.000E+00 0.000E+00 0.000E+00
BIGSUB  16        0   11.13850E+04    39.900     0.700    38.493    12.224    33.646     0.000     0.000     0.000     0.007     0.000     0.000     0.000     0.000     0.000     0.000     0.007     0.000     0.000 .00000E+00 0.000E+00 0.000E+00 0.000E+00
BIGSUB  17        0   11.17180E+04    15.200     2.000    39.831     9.722    11.225     0.000     0.000     0.000     0.004     0.000     0.000     0.000     0.000     0.000     0.000     0.004     0.000     0.000 .00000E+00 0.000E+00 0.000E+00 0.000E+00
BIGSUB  18        0   11.26090E+04    15.200     2.000    39.683    10.497    10.462     0.000     0.000     0.000     0.009     0.000     0.000     0.000     0.000     0.000     0.000     0.009     0.000     0.000 .00000E+00 0.000E+00 0.000E+00 0.000E+00
BIGSUB  19        0   11.25380E+04    15.200     2.000    40.131    10.360    10.577     0.000     0.000     0.000     0.014     0.000     0.000     0.000     0.000     0.000     0.000     0.014     0.000     0.000 .00000E+00 0.000E+00 0.000E+00 0.000E+00
BIGSUB  20        0   11.19820E+04    15.200     2.000    40.270    10.243    10.694     0.000     0.000     0.000     0.017     0.000     0.000     0.000     0.000     0.000     0.000     0.017     0.000     0.000 .00000E+00 0.000E+00 0.000E+00 0.000E+00
BIGSUB   1        0   12.12360E+04    45.100     0.000    26.069    17.179    49.993     0.000     0.000     0.000     0.058     0.000     0.000     0.000     0.000     0.000     0.000     0.058     0.000     0.000 .00000E+00 0.000E+00 0.000E+00 0.000E+00
BIGSUB   2        0   12.37400E+03    45.100     0.000    26.186    17.149    49.393     0.000     0.000     0.000     0.412     0.000     0.000     0.000     0.000     0.000     0.000     0.412     0.001     0.000 .00000E+00 0.000E+00 0.000E+00 0.000E+00
BIGSUB   3        0   12.14590E+04    45.100     0.000    26.066    17.103    50.172     0.000     0.000     0.000     0.066     0.000     0.000     0.000     0.000     0.000     0.000     0.066     0.000     0.000 .00000E+00 0.000E+00 0.000E+00 0.000E+00
BIGSUB   4        0   12.91800E+03    45.100     0.000    26.087    17.161    50.070     0.000     0.000     0.000     0.056     0.000     0.000     0.000     0.000     0.000     0.000     0.056     0.000     0.000 .00000E+00 0.000E+00 0.000E+00 0.000E+00
BIGSUB   5        0   12.37770E+04    45.100     0.000    26.277    17.147    49.955     0.000     0.000     0.000     0.043     0.000     0.000     0.000     0.000     0.000     0.000     0.043     0.000     0.000 .00000E+00 0.000E+00 0.000E+00 0.000E+00
BIGSUB   6        0   12.18250E+04    45.100     0.000    26.505    17.290    49.643     0.000     0.000     0.000     0.038     0.000     0.000     0.000     0.000     0.000     0.000     0.038     0.000     0.000 .00000E+00 0.000E+00 0.000E+00 0.000E+00
BIGSUB   7        0   12.14660E+04    45.100     0.000    26.526    17.771    49.217     0.000     0.000     0.000     0.006     0.000     0.000     0.000     0.000     0.000     0.000     0.006     0.000     0.000 .00000E+00 0.000E+00 0.000E+00 0.000E+00
BIGSUB   8        0   12.34940E+04    45.100     0.000    26.967    18.129    48.509     0.000     0.000     0.000     0.056     0.000     0.000     0.000     0.000     0.000     0.000     0.056     0.000     0.000 .00000E+00 0.000E+00 0.000E+00 0.000E+00
BIGSUB   9        0   12.47420E+04    12.900     0.000    27.949    10.706    22.734     0.000     0.000     0.000     0.023     0.000     0.000     0.000     0.000     0.000     0.000     0.023     0.000     0.000 .00000E+00 0.000E+00 0.000E+00 0.000E+00
BIGSUB  10        0   12.13380E+04    12.900     0.000    28.252    13.825    18.380     0.000     0.000     0.000     0.014     0.000     0.000     0.000     0.000     0.000     0.000     0.014     0.000     0.000 .00000E+00 0.000E+00 0.000E+00 0.000E+00
BIGSUB  11        0   12.24060E+04    40.500     0.354    25.023    18.037    54.731     0.000     0.000     0.000     0.016     0.000     0.000     0.000     0.000     0.000     0.000     0.016     0.000     0.000 .00000E+00 0.000E+00 0.000E+00 0.000E+00
BIGSUB  12        0   12.19770E+04    17.700     3.476    24.035     8.456    20.148     0.000     0.000     0.000     0.007     0.000     0.000     0.000     0.000     0.000     0.000     0.007     0.000     0.000 .00000E+00 0.000E+00 0.000E+00 0.000E+00
BIGSUB  13        0   12.16410E+04    40.500     0.354    25.231    17.505    53.342     0.000     0.000     0.000     0.008     0.000     0.000     0.000     0.000     0.000     0.000     0.008     0.000     0.000 .00000E+00 0.000E+00 0.000E+00 0.000E+00
BIGSUB  14        0   12.52740E+04    17.700     3.474    24.381     9.185    19.310     0.000     0.000     0.000     0.013     0.000     0.000     0.000     0.000     0.000     0.000     0.013     0.000     0.000 .00000E+00 0.000E+00 0.000E+00 0.000E+00
BIGSUB  15        0   12.42200E+03    40.500     0.354    25.426    17.844    53.692     0.000     0.000     0.000     0.009     0.000     0.000     0.000     0.000     0.000     0.000     0.009     0.000     0.000 .00000E+00 0.000E+00 0.000E+00 0.000E+00
BIGSUB  16        0   12.13850E+04    40.500     0.354    25.594    18.794    55.326     0.000     0.000     0.000     0.011     0.000     0.000     0.000     0.000     0.000     0.000     0.011     0.000     0.000 .00000E+00 0.000E+00 0.000E+00 0.000E+00
BIGSUB  17        0   12.17180E+04    17.700     3.472    24.736    11.151    17.770     0.000     0.000     0.000     0.004     0.000     0.000     0.000     0.000     0.000     0.000     0.004     0.000     0.000 .00000E+00 0.000E+00 0.000E+00 0.000E+00
BIGSUB  18        0   12.26090E+04    17.700     3.473    24.621     8.692    19.458     0.000     0.000     0.000     0.010     0.000     0.000     0.000     0.000     0.000     0.000     0.010     0.000     0.000 .00000E+00 0.000E+00 0.000E+00 0.000E+00
BIGSUB  19        0   12.25380E+04    17.700     3.471    24.969     9.360    18.895     0.000     0.000     0.000     0.022     0.000     0.000     0.000     0.000     0.000     0.000     0.022     0.000     0.000 .00000E+00 0.000E+00 0.000E+00 0.000E+00
BIGSUB  20        0   12.19820E+04    17.700     3.470    25.077     9.567    18.802     0.000     0.000     0.000     0.026     0.000     0.000     0.000     0.000     0.000     0.000     0.026     0.000     0.000 .00000E+00 0.000E+00 0.000E+00 0.000E+00
BIGSUB   1        0 2001.12360E+04   175.100     7.600  1387.187   184.766    49.993     0.000     0.000     0.000     0.315     0.000     0.000     0.000     0.000     0.000     0.000     0.315     0.001     0.000 .00000E+00 0.000E+00 0.000E+00 0.000E+00
BIGSUB   2        0 2001.37400E+03   175.100     7.600  1388.431   184.221    49.393     0.000     0.000     0.000     1.445     0.000     0.000     0.000     0.000     0.000     0.000     1.444     0.003     0.000 .00000E+00 0.000E+00 0.000E+00 0.000E+00
BIGSUB   3        0 2001.14590E+04   175.100     7.600  1387.160   185.846    50.172     0.000     0.000     0.000     0.454     0.000     0.000     0.000     0.000     0.000     0.000     0.454     0.001     0.000 .00000E+00 0.000E+00 0.000E+00 0.000E+00
BIGSUB   4        0 2001.91800E+03   175.100     7.600  1387.376   185.249    50.070     0.000     0.000     0.000     0.314     0.000     0.000     0.000     0.000     0.000     0.000     0.314     0.001     0.000 .00000E+00 0.000E+00 0.000E+00 0.000E+00
BIGSUB   5        0 2001.37770E+04   175.100     7.600  1389.395   186.199    49.955     0.000     0.000     0.000     0.288     0.000     0.000     0.000     0.000     0.000     0.000     0.287     0.001     0.000 .00000E+00 0.000E+00 0.000E+00 0.000E+00
BIGSUB   6        0 2001.18250E+04   175.100     7.600  1391.795   186.675    49.643     0.000     0.000     0.000     0.375     0.000     0.000     0.000     0.000     0.000     0.000     0.375     0.001     0.000 .00000E+00 0.000E+00 0.000E+00 0.000E+00
BIGSUB   7        0 2001.14660E+04   175.100     7.600  1392.018   180.635    49.217     0.000     0.014     0.000     0.080     0.000     0.000     0.000     0.000     0.000     0.000     0.066     0.000     0.000 .00000E+00 0.000E+00 0.000E+00 0.000E+00
BIGSUB   8        0 2001.34940E+04   175.100     7.600  1396.615   181.928    48.509     0.000     0.000     0.000     0.343     0.000     0.000     0.000     0.000     0.000     0.000     0.343     0.001     0.000 .00000E+00 0.000E+00 0.000E+00 0.000E+00
BIGSUB   9        0 2001.47420E+04   200.400    13.300  1264.808   221.017    22.734     0.000     0.006     0.000     0.251     0.000     0.000     0.000     0.001     0.000     0.000     0.245     0.002     0.000 .00000E+00 0.000E+00 0.000E+00 0.000E+00
BIGSUB  10        0 2001.13380E+04   200.400    13.300  1267.567   222.518    18.380     0.000     0.235     0.000     0.416     0.010     0.020     0.002     0.041     0.000     0.004     0.181     0.002     0.000 .00000E+00 0.000E+00 0.000E+00 0.000E+00
BIGSUB  11        0 2001.24060E+04   213.100    33.037  1159.323   219.336    54.731     0.000     5.053     0.173     5.379     0.514     0.658     0.080     0.033     0.001     0.147     0.153     0.001     0.001 .00000E+00 0.000E+00 0.000E+00 0.000E+00
BIGSUB  12        0 2001.19770E+04   180.000    62.616  1163.035   224.142    20.148     0.000    14.502     0.000    14.609     0.504     1.746     0.210     0.053     0.003     0.346     0.106     0.000     0.000 .00000E+00 0.000E+00 0.000E+00 0.000E+00
BIGSUB  13        0 2001.16410E+04   213.100    33.035  1161.186   215.947    53.342     0.000     7.560     0.717     8.365     0.596     0.911     0.111     0.055     0.001     0.202     0.088     0.000     0.004 .00000E+00 0.000E+00 0.000E+00 0.000E+00
BIGSUB  14        0 2001.52740E+04   180.000    62.585  1166.188   222.168    19.310     0.000    14.667     0.000    14.871     0.643     1.661     0.201     0.062     0.003     0.341     0.204     0.001     0.000 .00000E+00 0.000E+00 0.000E+00 0.000E+00
BIGSUB  15        0 2001.42200E+03   213.100    33.033  1162.915   218.256    53.692     0.000     5.865     0.744     6.702     0.346     0.579     0.070     0.039     0.001     0.129     0.093     0.000     0.005 .00000E+00 0.000E+00 0.000E+00 0.000E+00
BIGSUB  16        0 2001.13850E+04   213.100    33.032  1164.393   222.986    55.326     0.000     2.121     0.000     2.227     0.064     0.147     0.018     0.010     0.000     0.036     0.106     0.000     0.000 .00000E+00 0.000E+00 0.000E+00 0.000E+00
BIGSUB  17        0 2001.17180E+04   180.000    62.553  1169.387   204.617    17.770     0.000    28.436     0.000    28.498     0.769     2.253     0.273     0.130     0.005     0.499     0.062     0.000     0.000 .00000E+00 0.000E+00 0.000E+00 0.000E+00
BIGSUB  18        0 2001.26090E+04   180.000    62.563  1168.357   231.611    19.458     0.000     7.334     0.000     7.496     0.114     0.410     0.049     0.025     0.002     0.109     0.162     0.001     0.000 .00000E+00 0.000E+00 0.000E+00 0.000E+00
BIGSUB  19        0 2001.25380E+04   180.000    62.532  1171.455   224.883    18.895     0.000    12.090     0.000    12.362     0.800     1.390     0.168     0.048     0.002     0.301     0.272     0.001     0.000 .00000E+00 0.000E+00 0.000E+00 0.000E+00
BIGSUB  20        0 2001.19820E+04   180.000    62.522  1172.410   222.729    18.802     0.000    13.466     0.000    13.779     0.867     1.615     0.196     0.056     0.002     0.354     0.313     0.001     0.000 .00000E+00 0.000E+00 0.000E+00 0.000E+00
BIGSUB   1        0 12.0.12360E+04   273.842    46.598  1301.699   259.246    49.993     4.199     7.999     0.729     9.192     1.322     1.831     0.220     0.031     0.001     0.414     0.465     0.002     0.004 .00000E+00 0.000E+00 0.000E+00 0.000E+00
BIGSUB   2        0 12.0.37400E+03   273.842    46.595  1302.846   259.143    49.393     3.091     7.636     0.505    10.277     3.620     2.857     0.341     0.029     0.001     0.663     2.136     0.009     0.003 .00000E+00 0.000E+00 0.000E+00 0.000E+00
BIGSUB   3        0 12.0.14590E+04   273.842    46.598  1301.675   262.610    50.172     2.362     6.458     0.374     7.500     2.119     2.000     0.239     0.023     0.001     0.488     0.667     0.003     0.002 .00000E+00 0.000E+00 0.000E+00 0.000E+00
BIGSUB   4        0 12.0.91800E+03   273.842    46.597  1301.874   260.669    50.070     3.469     7.472     0.574     8.509     1.812     1.924     0.231     0.028     0.001     0.443     0.462     0.002     0.003 .00000E+00 0.000E+00 0.000E+00 0.000E+00
BIGSUB   5        0 12.0.37770E+04   273.842    46.592  1303.735   261.557    49.955     2.087     7.575     0.391     8.390     1.053     1.849     0.221     0.030     0.001     0.405     0.424     0.002     0.002 .00000E+00 0.000E+00 0.000E+00 0.000E+00
BIGSUB   6        0 12.0.18250E+04   273.842    46.586  1305.946   262.479    49.643     0.696     7.758     0.123     8.451     1.656     2.017     0.243     0.028     0.001     0.454     0.569     0.003     0.001 .00000E+00 0.000E+00 0.000E+00 0.000E+00
BIGSUB   7        0 12.0.14660E+04   273.842    46.586  1306.152   242.372    49.217     7.515    20.022     1.897    22.012     1.337     3.079     0.368     0.089     0.004     0.678     0.093     0.001     0.024 .00000E+00 0.000E+00 0.000E+00 0.000E+00
BIGSUB   8        0 12.0.34940E+04   273.842    46.574  1310.320   244.780    48.509     5.189    20.581     1.025    22.104     5.780     5.653     0.677     0.092     0.003     1.217     0.497     0.002     0.008 .00000E+00 0.000E+00 0.000E+00 0.000E+00
BIGSUB   9        0 12.0.47420E+04   283.017    46.042  1206.171   269.255    22.734     1.819    10.028     0.235    10.583     0.691     1.517     0.168     0.060     0.002     0.332     0.319     0.004     0.010 .00000E+00 0.000E+00 0.000E+00 0.000E+00
BIGSUB  10        0 12.0.13380E+04   283.017    46.034  1208.742   252.901    18.380     4.382    24.153     1.096    25.475     3.587     5.274     0.598     0.153     0.005     1.114     0.226     0.004     0.095 .00000E+00 0.000E+00 0.000E+00 0.000E+00
BIGSUB  11        0 12.0.24060E+04   400.261    99.356  1092.950   319.299    54.731    16.305    59.381     7.969    67.634     3.790     5.483     0.652     0.243     0.008     1.206     0.284     0.002     0.146 .00000E+00 0.000E+00 0.000E+00 0.000E+00
BIGSUB  12        0 12.0.19770E+04   347.875    81.081  1113.007   310.009    20.148     3.673    33.745     0.609    34.533     0.849     3.120     0.365     0.132     0.007     0.600     0.178     0.002     0.007 .00000E+00 0.000E+00 0.000E+00 0.000E+00
BIGSUB  13        0 12.0.16410E+04   400.261    99.347  1094.717   287.959    53.342    33.055    73.652    19.821    93.625     4.059     6.609     0.790     0.316     0.010     1.443     0.152     0.001     0.381 .00000E+00 0.000E+00 0.000E+00 0.000E+00
BIGSUB  14        0 12.0.52740E+04   347.875    81.045  1115.920   299.664    19.310    12.809    33.841     4.833    39.014     1.338     3.682     0.431     0.146     0.007     0.737     0.340     0.003     0.096 .00000E+00 0.000E+00 0.000E+00 0.000E+00
BIGSUB  15        0 12.0.42200E+03   400.261    99.339  1096.356   301.496    53.692    29.295    64.725    16.917    81.812     2.749     4.609     0.550     0.262     0.010     1.012     0.170     0.001     0.328 .00000E+00 0.000E+00 0.000E+00 0.000E+00
BIGSUB  16        0 12.0.13850E+04   400.261    99.332  1097.758   344.927    55.326    11.247    39.317     3.852    43.372     0.888     2.055     0.243     0.139     0.008     0.502     0.203     0.001     0.074 .00000E+00 0.000E+00 0.000E+00 0.000E+00
BIGSUB  17        0 12.0.17180E+04   347.875    81.028  1118.941   257.361    17.770    27.441    60.675    14.245    75.023     1.503     4.659     0.550     0.265     0.012     1.008     0.102     0.001     0.308 .00000E+00 0.000E+00 0.000E+00 0.000E+00
BIGSUB  18        0 12.0.26090E+04   347.875    81.033  1117.968   320.145    19.458     8.543    18.801     2.289    21.357     0.267     0.937     0.109     0.067     0.005     0.241     0.266     0.002     0.051 .00000E+00 0.000E+00 0.000E+00 0.000E+00
BIGSUB  19        0 12.0.25380E+04   347.875    81.016  1120.895   299.825    18.895    19.203    29.061     8.672    38.246     2.034     3.374     0.396     0.114     0.005     0.711     0.513     0.003     0.147 .00000E+00 0.000E+00 0.000E+00 0.000E+00
BIGSUB  20        0 12.0.19820E+04   347.875    81.011  1121.796   292.561    18.802    24.049    31.231    11.676    43.521     2.138     3.846     0.452     0.125     0.006     0.813     0.614     0.004     0.201 .00000E+00 0.000E+00 0.000E+00 0.000E+00
