1
    SWAT Apr 12 2013    VER 2012/Rev 591                                                                 0/ 0/   0      0: 0: 0

    General Input/Output section (file.cio):                                        
    11/14/2011 12:00:00 AM ARCGIS-SWAT interface AV                                 
                                                                                    


       SUB      GIS  MON   AREAkm2  PRECIPmm SNOMELTmm     PETmm      ETmm      SWmm    PERCmm    SURQmm    GW_Qmm    WYLDmm  SYLDt/ha ORGNkg/ha ORGPkg/haNSURQkg/ha SOLPkg/ha SEDPkg/ha LAT Q(mm)LATNO3kg/hGWNO3kg/haCHOLAmic/LCBODU mg/L DOXQ mg/L TNO3kg/ha
BIGSUB   1        0    1.12360E+04    51.400    11.225    15.052     7.429    61.045     0.000     1.651     0.000     1.715     0.115     0.173     0.020     0.016     0.000     0.040     0.064     0.000     0.000 .00000E+00 0.000E+00 0.000E+00 0.000E+00
BIGSUB   2        0    1.37400E+03    51.400    11.225    15.113     7.509    60.678     0.000     1.532     0.000     1.921     0.311     0.240     0.028     0.016     0.000     0.055     0.389     0.002     0.000 .00000E+00 0.000E+00 0.000E+00 0.000E+00
BIGSUB   3        0    1.14590E+04    51.400    11.225    15.050     7.449    62.535     0.000     1.491     0.000     1.569     0.188     0.184     0.021     0.015     0.000     0.046     0.078     0.000     0.000 .00000E+00 0.000E+00 0.000E+00 0.000E+00
BIGSUB   4        0    1.91800E+03    51.400    11.225    15.061     7.442    61.653     0.000     1.602     0.000     1.663     0.167     0.186     0.022     0.016     0.000     0.044     0.062     0.000     0.000 .00000E+00 0.000E+00 0.000E+00 0.000E+00
BIGSUB   5        0    1.37770E+04    51.400    11.225    15.160     7.550    61.533     0.000     1.733     0.000     1.783     0.061     0.125     0.015     0.018     0.000     0.027     0.050     0.000     0.000 .00000E+00 0.000E+00 0.000E+00 0.000E+00
BIGSUB   6        0    1.18250E+04    51.400    11.225    15.279     7.626    60.727     0.000     1.865     0.000     1.918     0.128     0.082     0.010     0.017     0.000     0.018     0.053     0.000     0.000 .00000E+00 0.000E+00 0.000E+00 0.000E+00
BIGSUB   7        0    1.14660E+04    51.400    11.225    15.290     7.454    47.717     0.000     5.544     0.000     5.550     0.264     0.598     0.071     0.039     0.001     0.133     0.006     0.000     0.000 .00000E+00 0.000E+00 0.000E+00 0.000E+00
BIGSUB   8        0    1.34940E+04    51.400    11.225    15.520     7.586    53.502     0.000     3.770     0.000     3.835     0.807     0.798     0.093     0.028     0.000     0.171     0.065     0.000     0.000 .00000E+00 0.000E+00 0.000E+00 0.000E+00
BIGSUB   9        0    1.47420E+04    26.400    12.813    16.126     5.589    28.795     0.000     0.000     0.000     0.011     0.000     0.000     0.000     0.000     0.000     0.000     0.011     0.000     0.000 .00000E+00 0.000E+00 0.000E+00 0.000E+00
BIGSUB  10        0    1.13380E+04    26.400    12.807    16.283     7.142    24.341     0.000     0.054     0.000     0.062     0.010     0.017     0.002     0.002     0.000     0.004     0.008     0.000     0.000 .00000E+00 0.000E+00 0.000E+00 0.000E+00
BIGSUB  11        0    1.24060E+04    38.272    37.456    20.882     9.097    42.801     0.000     9.148     0.000     9.160     0.880     0.919     0.102     0.091     0.001     0.191     0.013     0.000     0.000 .00000E+00 0.000E+00 0.000E+00 0.000E+00
BIGSUB  12        0    1.19770E+04    46.500     4.125    14.944     6.849    51.636     0.000     0.918     0.000     0.928     0.026     0.099     0.011     0.024     0.000     0.019     0.010     0.000     0.000 .00000E+00 0.000E+00 0.000E+00 0.000E+00
BIGSUB  13        0    1.16410E+04    38.272    37.453    21.038    10.694    38.489     0.000    11.209     0.079    11.294     0.850     1.065     0.120     0.103     0.001     0.222     0.006     0.000     0.003 .00000E+00 0.000E+00 0.000E+00 0.000E+00
BIGSUB  14        0    1.52740E+04    46.500     4.125    15.141     6.778    49.112     0.000     0.864     0.000     0.883     0.013     0.048     0.005     0.032     0.000     0.010     0.019     0.000     0.000 .00000E+00 0.000E+00 0.000E+00 0.000E+00
BIGSUB  15        0    1.42200E+03    38.272    37.451    21.185    10.161    40.235     0.000    11.724     0.119    11.851     0.646     0.933     0.105     0.141     0.002     0.196     0.008     0.000     0.004 .00000E+00 0.000E+00 0.000E+00 0.000E+00
BIGSUB  16        0    1.13850E+04    38.272    37.448    21.310     7.885    44.184     0.000     9.073     0.000     9.083     0.227     0.430     0.047     0.147     0.002     0.100     0.010     0.000     0.000 .00000E+00 0.000E+00 0.000E+00 0.000E+00
BIGSUB  17        0    1.17180E+04    46.500     4.125    15.342     6.620    42.096     0.000     0.953     0.000     0.958     0.012     0.050     0.006     0.032     0.000     0.011     0.005     0.000     0.000 .00000E+00 0.000E+00 0.000E+00 0.000E+00
BIGSUB  18        0    1.26090E+04    46.500     4.125    15.277     6.872    51.875     0.000     0.864     0.000     0.879     0.007     0.027     0.003     0.034     0.000     0.007     0.015     0.000     0.000 .00000E+00 0.000E+00 0.000E+00 0.000E+00
BIGSUB  19        0    1.25380E+04    46.500     4.125    15.474     6.827    50.074     0.000     0.917     0.000     0.953     0.040     0.085     0.010     0.031     0.000     0.018     0.036     0.000     0.000 .00000E+00 0.000E+00 0.000E+00 0.000E+00
BIGSUB  20        0    1.19820E+04    46.500     4.125    15.535     6.778    49.659     0.000     0.910     0.000     0.952     0.044     0.093     0.010     0.030     0.000     0.020     0.042     0.001     0.000 .00000E+00 0.000E+00 0.000E+00 0.000E+00
BIGSUB   1        0    2.12360E+04    40.600    43.800    25.836    17.531    76.021     0.000    19.639     0.000    19.681     4.846     4.968     0.584     0.089     0.003     1.303     0.041     0.000     0.000 .00000E+00 0.000E+00 0.000E+00 0.000E+00
BIGSUB   2        0    2.37400E+03    40.600    43.798    25.908    17.552    73.978     0.000    21.206     0.000    21.378    14.675     7.866     0.917     0.094     0.003     2.072     0.172     0.002     0.000 .00000E+00 0.000E+00 0.000E+00 0.000E+00
BIGSUB   3        0    2.14590E+04    40.600    43.800    25.835    16.903    72.859     0.000    24.832     0.000    24.887     8.742     7.356     0.862     0.101     0.004     2.084     0.055     0.000     0.000 .00000E+00 0.000E+00 0.000E+00 0.000E+00
BIGSUB   4        0    2.91800E+03    40.600    43.800    25.847    17.287    74.770     0.000    21.843     0.000    21.884     6.602     5.672     0.667     0.094     0.003     1.526     0.041     0.000     0.000 .00000E+00 0.000E+00 0.000E+00 0.000E+00
BIGSUB   5        0    2.37770E+04    40.600    43.795    25.964    17.268    73.955     0.000    21.960     0.000    21.995     3.907     5.931     0.703     0.082     0.003     1.346     0.035     0.000     0.000 .00000E+00 0.000E+00 0.000E+00 0.000E+00
BIGSUB   6        0    2.18250E+04    40.600    43.790    26.104    16.815    68.983     0.000    26.284     0.000    26.326     6.390     7.237     0.865     0.085     0.004     1.672     0.042     0.000     0.000 .00000E+00 0.000E+00 0.000E+00 0.000E+00
BIGSUB   7        0    2.14660E+04    40.600    43.789    26.117    16.902    62.388     0.000    19.853     0.000    19.859     2.008     3.897     0.465     0.094     0.003     0.870     0.005     0.000     0.000 .00000E+00 0.000E+00 0.000E+00 0.000E+00
BIGSUB   8        0    2.34940E+04    40.600    43.779    26.378    17.549    57.198     0.000    30.625     0.000    30.661    14.118    10.709     1.249     0.144     0.003     2.255     0.036     0.000     0.000 .00000E+00 0.000E+00 0.000E+00 0.000E+00
BIGSUB   9        0    2.47420E+04    35.500    36.773    23.388    10.458    46.756     0.000    17.670     0.000    17.684     1.637     3.140     0.370     0.094     0.004     0.934     0.014     0.000     0.000 .00000E+00 0.000E+00 0.000E+00 0.000E+00
BIGSUB  10        0    2.13380E+04    35.500    36.769    23.547    11.824    52.258     0.000     6.789     0.000     6.797     1.779     2.424     0.288     0.037     0.001     0.543     0.008     0.000     0.000 .00000E+00 0.000E+00 0.000E+00 0.000E+00
BIGSUB  11        0    2.24060E+04    26.224     9.666    21.797    10.220    36.255     0.000     8.893     0.000     8.903     0.401     0.780     0.087     0.101     0.001     0.163     0.010     0.000     0.000 .00000E+00 0.000E+00 0.000E+00 0.000E+00
BIGSUB  12        0    2.19770E+04    44.900    32.625    19.464     7.786    56.978     0.000    20.057     0.000    20.065     0.626     2.301     0.266     0.162     0.004     0.446     0.008     0.000     0.000 .00000E+00 0.000E+00 0.000E+00 0.000E+00
BIGSUB  13        0    2.16410E+04    26.224     9.666    21.916    11.450    30.713     0.000     8.943     0.037     8.985     0.375     0.796     0.090     0.097     0.001     0.166     0.005     0.000     0.001 .00000E+00 0.000E+00 0.000E+00 0.000E+00
BIGSUB  14        0    2.52740E+04    44.900    32.625    19.642     7.648    67.786     0.000     6.606     0.000     6.621     0.195     0.623     0.072     0.096     0.001     0.126     0.015     0.000     0.000 .00000E+00 0.000E+00 0.000E+00 0.000E+00
BIGSUB  15        0    2.42200E+03    26.224     9.666    22.027    10.988    32.922     0.000     7.582     0.054     7.643     0.299     0.537     0.061     0.092     0.001     0.113     0.006     0.000     0.001 .00000E+00 0.000E+00 0.000E+00 0.000E+00
BIGSUB  16        0    2.13850E+04    26.224     9.666    22.122     8.937    38.921     0.000     8.690     0.000     8.698     0.129     0.411     0.045     0.097     0.001     0.094     0.008     0.000     0.000 .00000E+00 0.000E+00 0.000E+00 0.000E+00
BIGSUB  17        0    2.17180E+04    44.900    32.625    19.824     7.566    57.272     0.000    10.265     0.000    10.270     0.211     0.761     0.089     0.116     0.002     0.164     0.004     0.000     0.000 .00000E+00 0.000E+00 0.000E+00 0.000E+00
BIGSUB  18        0    2.26090E+04    44.900    32.625    19.765     7.700    72.589     0.000     4.662     0.000     4.674     0.048     0.187     0.021     0.081     0.001     0.047     0.012     0.000     0.000 .00000E+00 0.000E+00 0.000E+00 0.000E+00
BIGSUB  19        0    2.25380E+04    44.900    32.625    19.942     7.699    72.535     0.000     3.530     0.000     3.553     0.076     0.209     0.024     0.048     0.001     0.047     0.023     0.000     0.000 .00000E+00 0.000E+00 0.000E+00 0.000E+00
BIGSUB  20        0    2.19820E+04    44.900    32.625    19.997     7.633    69.313     0.000     6.439     0.000     6.465     0.168     0.395     0.044     0.051     0.001     0.103     0.026     0.001     0.000 .00000E+00 0.000E+00 0.000E+00 0.000E+00
BIGSUB   1        0    3.12360E+04    40.400     3.000    69.276    38.629    75.235     0.000     2.162     0.000     2.215     0.498     0.549     0.065     0.016     0.000     0.115     0.053     0.000     0.000 .00000E+00 0.000E+00 0.000E+00 0.000E+00
BIGSUB   2        0    3.37400E+03    40.400     3.000    69.392    38.902    72.953     0.000     2.005     0.000     2.271     1.357     0.677     0.079     0.014     0.000     0.143     0.266     0.002     0.000 .00000E+00 0.000E+00 0.000E+00 0.000E+00
BIGSUB   3        0    3.14590E+04    40.400     3.000    69.274    39.281    72.474     0.000     1.206     0.000     1.274     0.743     0.405     0.047     0.009     0.000     0.084     0.069     0.001     0.000 .00000E+00 0.000E+00 0.000E+00 0.000E+00
BIGSUB   4        0    3.91800E+03    40.400     3.000    69.294    38.897    74.151     0.000     1.838     0.000     1.890     0.707     0.526     0.062     0.013     0.000     0.110     0.052     0.000     0.000 .00000E+00 0.000E+00 0.000E+00 0.000E+00
BIGSUB   5        0    3.37770E+04    40.400     3.000    69.482    39.445    71.768     0.000     2.398     0.000     2.442     0.488     0.603     0.072     0.017     0.000     0.134     0.044     0.000     0.000 .00000E+00 0.000E+00 0.000E+00 0.000E+00
BIGSUB   6        0    3.18250E+04    40.400     3.000    69.706    39.662    66.579     0.000     2.274     0.000     2.325     0.568     0.504     0.061     0.013     0.000     0.117     0.051     0.000     0.000 .00000E+00 0.000E+00 0.000E+00 0.000E+00
BIGSUB   7        0    3.14660E+04    40.400     3.000    69.727    35.481    58.448     0.000     7.460     0.000     7.466     0.659     1.277     0.153     0.060     0.001     0.287     0.006     0.000     0.000 .00000E+00 0.000E+00 0.000E+00 0.000E+00
BIGSUB   8        0    3.34940E+04    40.400     3.000    70.158    36.476    56.236     0.000     4.251     0.000     4.296     1.098     0.739     0.087     0.029     0.000     0.161     0.045     0.000     0.000 .00000E+00 0.000E+00 0.000E+00 0.000E+00
BIGSUB   9        0    3.47420E+04    44.100     0.500    61.109    29.552    55.356     0.000     5.005     0.000     5.040     0.806     1.352     0.159     0.035     0.001     0.307     0.035     0.001     0.000 .00000E+00 0.000E+00 0.000E+00 0.000E+00
BIGSUB  10        0    3.13380E+04    44.100     0.500    61.359    28.260    51.256     0.000    16.271     0.000    16.284     4.495     5.341     0.635     0.104     0.003     1.201     0.013     0.000     0.000 .00000E+00 0.000E+00 0.000E+00 0.000E+00
BIGSUB  11        0    3.24060E+04     1.524    15.721    54.749    15.938    24.945     0.000    12.531     0.000    12.540     0.971     1.265     0.141     0.091     0.002     0.265     0.009     0.000     0.000 .00000E+00 0.000E+00 0.000E+00 0.000E+00
BIGSUB  12        0    3.19770E+04    82.900    67.538    49.658    40.164    91.574     0.000    51.894     0.000    51.906     2.414     7.546     0.873     0.263     0.010     1.467     0.012     0.000     0.000 .00000E+00 0.000E+00 0.000E+00 0.000E+00
BIGSUB  13        0    3.16410E+04     1.524    15.721    54.925    15.321    20.020     0.000    12.523     0.000    12.528     0.902     1.266     0.143     0.092     0.001     0.264     0.005     0.000     0.000 .00000E+00 0.000E+00 0.000E+00 0.000E+00
BIGSUB  14        0    3.52740E+04    82.900    67.513    49.929    39.893   101.125     0.000    52.196     0.000    52.220     2.567     6.878     0.790     0.229     0.010     1.451     0.024     0.000     0.000 .00000E+00 0.000E+00 0.000E+00 0.000E+00
BIGSUB  15        0    3.42200E+03     1.524    15.721    55.089    15.550    22.000     0.000    12.545     0.000    12.551     0.744     1.068     0.121     0.095     0.002     0.225     0.006     0.000     0.000 .00000E+00 0.000E+00 0.000E+00 0.000E+00
BIGSUB  16        0    3.13850E+04     1.524    15.721    55.229    15.749    27.800     0.000    12.529     0.000    12.536     0.312     0.694     0.076     0.087     0.002     0.160     0.007     0.000     0.000 .00000E+00 0.000E+00 0.000E+00 0.000E+00
BIGSUB  17        0    3.17180E+04    82.900    67.487    50.204    39.799    81.061     0.000    62.072     0.000    62.077     2.219     6.768     0.789     0.328     0.012     1.468     0.005     0.000     0.000 .00000E+00 0.000E+00 0.000E+00 0.000E+00
BIGSUB  18        0    3.26090E+04    82.900    67.495    50.115    39.694   112.018     0.000    46.889     0.000    46.908     1.061     3.484     0.395     0.177     0.010     0.889     0.019     0.000     0.000 .00000E+00 0.000E+00 0.000E+00 0.000E+00
BIGSUB  19        0    3.25380E+04    82.900    67.470    50.383    40.185   108.559     0.000    51.119     0.000    51.182     3.237     6.614     0.748     0.233     0.010     1.411     0.063     0.001     0.000 .00000E+00 0.000E+00 0.000E+00 0.000E+00
BIGSUB  20        0    3.19820E+04    82.900    67.462    50.466    40.084   105.012     0.000    51.500     0.000    51.574     3.625     7.406     0.837     0.251     0.009     1.601     0.074     0.001     0.000 .00000E+00 0.000E+00 0.000E+00 0.000E+00
BIGSUB   1        0    4.12360E+04    69.300     3.800   105.468    48.942    82.698     0.000    12.112     0.000    12.175     3.616     3.394     0.404     0.067     0.002     0.748     0.062     0.000     0.000 .00000E+00 0.000E+00 0.000E+00 0.000E+00
BIGSUB   2        0    4.37400E+03    69.300     3.800   105.546    49.240    80.300     0.000    11.797     0.000    12.123    10.046     4.224     0.499     0.061     0.001     0.952     0.325     0.002     0.000 .00000E+00 0.000E+00 0.000E+00 0.000E+00
BIGSUB   3        0    4.14590E+04    69.300     3.800   105.466    50.302    82.337     0.000     8.495     0.000     8.577     5.569     2.809     0.332     0.043     0.001     0.656     0.083     0.001     0.000 .00000E+00 0.000E+00 0.000E+00 0.000E+00
BIGSUB   4        0    4.91800E+03    69.300     3.800   105.480    49.493    82.590     0.000    10.842     0.000    10.903     4.994     3.289     0.391     0.058     0.001     0.735     0.061     0.000     0.000 .00000E+00 0.000E+00 0.000E+00 0.000E+00
BIGSUB   5        0    4.37770E+04    69.300     3.800   105.607    49.710    75.976     0.000    13.819     0.000    13.871     3.502     3.929     0.469     0.073     0.002     0.885     0.052     0.000     0.000 .00000E+00 0.000E+00 0.000E+00 0.000E+00
BIGSUB   6        0    4.18250E+04    69.300     3.800   105.759    50.149    70.471     0.000    13.342     0.000    13.405     3.502     3.359     0.404     0.061     0.002     0.788     0.063     0.000     0.000 .00000E+00 0.000E+00 0.000E+00 0.000E+00
BIGSUB   7        0    4.14660E+04    69.300     3.800   105.773    42.583    58.014     0.000    24.158     0.000    24.164     3.038     5.078     0.611     0.158     0.004     1.150     0.006     0.000     0.000 .00000E+00 0.000E+00 0.000E+00 0.000E+00
BIGSUB   8        0    4.34940E+04    69.300     3.800   106.061    45.023    61.080     0.000    18.123     0.000    18.186     7.869     4.264     0.505     0.107     0.002     0.935     0.063     0.000     0.000 .00000E+00 0.000E+00 0.000E+00 0.000E+00
BIGSUB   9        0    4.47420E+04    55.600     0.000    96.776    37.092    67.589     0.000     4.881     0.000     4.923     1.540     1.885     0.223     0.045     0.001     0.424     0.042     0.001     0.000 .00000E+00 0.000E+00 0.000E+00 0.000E+00
BIGSUB  10        0    4.13380E+04    55.600     0.000    96.948    31.360    57.251     0.000    17.348     0.000    17.362     8.102     7.716     0.922     0.133     0.003     1.750     0.015     0.000     0.000 .00000E+00 0.000E+00 0.000E+00 0.000E+00
BIGSUB  11        0    4.24060E+04    57.529     0.000    88.662    34.213    40.081     0.000     7.574     0.000     7.586     0.637     0.821     0.094     0.049     0.001     0.176     0.012     0.000     0.000 .00000E+00 0.000E+00 0.000E+00 0.000E+00
BIGSUB  12        0    4.19770E+04    64.700     0.000    85.056    39.083    94.359     0.000    18.797     0.000    18.811     1.467     3.195     0.373     0.126     0.003     0.631     0.014     0.000     0.000 .00000E+00 0.000E+00 0.000E+00 0.000E+00
BIGSUB  13        0    4.16410E+04    57.529     0.000    88.783    32.024    34.949     0.000     9.909     0.000     9.915     0.724     1.062     0.122     0.064     0.001     0.228     0.006     0.000     0.000 .00000E+00 0.000E+00 0.000E+00 0.000E+00
BIGSUB  14        0    4.52740E+04    64.700     0.000    85.253    37.978   104.746     0.000    17.123     0.000    17.152     1.261     2.482     0.288     0.116     0.003     0.513     0.029     0.001     0.000 .00000E+00 0.000E+00 0.000E+00 0.000E+00
BIGSUB  15        0    4.42200E+03    57.529     0.000    88.895    32.980    38.812     0.000     7.223     0.000     7.230     0.404     0.626     0.072     0.047     0.001     0.135     0.007     0.000     0.000 .00000E+00 0.000E+00 0.000E+00 0.000E+00
BIGSUB  16        0    4.13850E+04    57.529     0.000    88.991    35.905    45.993     0.000     2.926     0.000     2.935     0.080     0.193     0.022     0.021     0.001     0.044     0.009     0.000     0.000 .00000E+00 0.000E+00 0.000E+00 0.000E+00
BIGSUB  17        0    4.17180E+04    64.700     0.000    85.453    34.212    77.604     0.000    26.980     0.000    26.986     1.275     3.047     0.357     0.171     0.005     0.668     0.006     0.000     0.000 .00000E+00 0.000E+00 0.000E+00 0.000E+00
BIGSUB  18        0    4.26090E+04    64.700     0.000    85.389    40.189   120.523     0.000    11.335     0.000    11.358     0.336     0.856     0.098     0.079     0.003     0.222     0.023     0.000     0.000 .00000E+00 0.000E+00 0.000E+00 0.000E+00
BIGSUB  19        0    4.25380E+04    64.700     0.000    85.581    39.024   114.045     0.054    18.467     0.000    18.537     1.943     2.672     0.305     0.129     0.003     0.571     0.070     0.001     0.000 .00000E+00 0.000E+00 0.000E+00 0.000E+00
BIGSUB  20        0    4.19820E+04    64.700     0.000    85.641    38.803   112.454     0.013    16.754     0.000    16.836     1.870     2.753     0.315     0.121     0.003     0.573     0.082     0.001     0.000 .00000E+00 0.000E+00 0.000E+00 0.000E+00
BIGSUB   1        0    5.12360E+04    14.600     0.000   160.727    39.848    57.379     0.000     0.073     0.000     0.124     0.000     0.016     0.002     0.001     0.000     0.003     0.052     0.000     0.000 .00000E+00 0.000E+00 0.000E+00 0.000E+00
BIGSUB   2        0    5.37400E+03    14.600     0.000   160.753    39.970    54.814     0.000     0.005     0.000     0.205     0.000     0.001     0.000     0.000     0.000     0.000     0.200     0.001     0.000 .00000E+00 0.000E+00 0.000E+00 0.000E+00
BIGSUB   3        0    5.14590E+04    14.600     0.000   160.727    41.035    55.850     0.000     0.008     0.000     0.082     0.000     0.002     0.000     0.000     0.000     0.000     0.074     0.000     0.000 .00000E+00 0.000E+00 0.000E+00 0.000E+00
BIGSUB   4        0    5.91800E+03    14.600     0.000   160.731    40.328    56.802     0.000     0.011     0.000     0.062     0.000     0.002     0.000     0.000     0.000     0.000     0.051     0.000     0.000 .00000E+00 0.000E+00 0.000E+00 0.000E+00
BIGSUB   5        0    5.37770E+04    14.600     0.000   160.773    40.074    50.455     0.000     0.196     0.000     0.242     0.000     0.036     0.004     0.002     0.000     0.008     0.046     0.000     0.000 .00000E+00 0.000E+00 0.000E+00 0.000E+00
BIGSUB   6        0    5.18250E+04    14.600     0.000   160.822    41.386    43.634     0.000     0.256     0.000     0.319     0.000     0.038     0.005     0.002     0.000     0.009     0.063     0.000     0.000 .00000E+00 0.000E+00 0.000E+00 0.000E+00
BIGSUB   7        0    5.14660E+04    14.600     0.000   160.827    33.589    38.280     0.000     1.167     0.000     1.173     0.000     0.156     0.019     0.016     0.000     0.036     0.007     0.000     0.000 .00000E+00 0.000E+00 0.000E+00 0.000E+00
BIGSUB   8        0    5.34940E+04    14.600     0.000   160.916    38.451    36.975     0.000     0.223     0.000     0.277     0.037     0.043     0.005     0.003     0.000     0.010     0.054     0.000     0.000 .00000E+00 0.000E+00 0.000E+00 0.000E+00
BIGSUB   9        0    5.47420E+04    22.800     0.000   152.008    42.850    45.551     0.000     2.452     0.000     2.490     0.669     1.032     0.122     0.019     0.001     0.237     0.038     0.000     0.000 .00000E+00 0.000E+00 0.000E+00 0.000E+00
BIGSUB  10        0    5.13380E+04    22.800     0.000   152.061    33.461    40.298     0.000     6.499     0.000     6.514     4.031     3.433     0.411     0.028     0.001     0.783     0.016     0.000     0.000 .00000E+00 0.000E+00 0.000E+00 0.000E+00
BIGSUB  11        0    5.24060E+04    42.426     0.000   127.176    33.323    45.013     0.000     3.525     0.000     3.539     0.507     0.445     0.051     0.019     0.000     0.098     0.014     0.000     0.000 .00000E+00 0.000E+00 0.000E+00 0.000E+00
BIGSUB  12        0    5.19770E+04     7.800     0.000   138.410    33.231    68.860     0.000     3.311     0.000     3.325     0.000     0.646     0.076     0.029     0.001     0.128     0.014     0.000     0.000 .00000E+00 0.000E+00 0.000E+00 0.000E+00
BIGSUB  13        0    5.16410E+04    42.426     0.000   127.208    29.152    42.374     0.000     4.784     0.000     4.791     0.534     0.549     0.064     0.027     0.001     0.120     0.006     0.000     0.000 .00000E+00 0.000E+00 0.000E+00 0.000E+00
BIGSUB  14        0    5.52740E+04     7.800     0.000   138.467    32.124    80.186     0.000     4.782     0.000     4.809     0.011     0.481     0.056     0.048     0.001     0.104     0.028     0.000     0.000 .00000E+00 0.000E+00 0.000E+00 0.000E+00
BIGSUB  15        0    5.42200E+03    42.426     0.000   127.236    31.061    45.926     0.000     3.859     0.000     3.868     0.343     0.409     0.048     0.019     0.001     0.090     0.008     0.000     0.000 .00000E+00 0.000E+00 0.000E+00 0.000E+00
BIGSUB  16        0    5.13850E+04    42.426     0.000   127.259    36.779    50.111     0.000     1.251     0.000     1.261     0.064     0.110     0.013     0.005     0.000     0.026     0.010     0.000     0.000 .00000E+00 0.000E+00 0.000E+00 0.000E+00
BIGSUB  17        0    5.17180E+04     7.800     0.000   138.520    26.147    58.578     0.000     6.023     0.000     6.029     0.009     0.511     0.060     0.077     0.001     0.113     0.006     0.000     0.000 .00000E+00 0.000E+00 0.000E+00 0.000E+00
BIGSUB  18        0    5.26090E+04     7.800     0.000   138.503    35.983    92.337     0.000     3.588     0.000     3.611     0.005     0.215     0.025     0.028     0.001     0.056     0.023     0.000     0.000 .00000E+00 0.000E+00 0.000E+00 0.000E+00
BIGSUB  19        0    5.25380E+04     7.800     0.000   138.552    34.244    87.533     0.000     1.049     0.000     1.098     0.000     0.100     0.011     0.011     0.000     0.022     0.048     0.001     0.000 .00000E+00 0.000E+00 0.000E+00 0.000E+00
BIGSUB  20        0    5.19820E+04     7.800     0.000   138.566    34.541    85.620     0.000     1.025     0.000     1.081     0.000     0.128     0.015     0.012     0.000     0.027     0.056     0.001     0.000 .00000E+00 0.000E+00 0.000E+00 0.000E+00
BIGSUB   1        0    6.12360E+04     3.200     0.000   209.138    60.576     0.000     0.000     0.000     0.000     0.029     0.000     0.000     0.000     0.000     0.000     0.000     0.029     0.000     0.000 .00000E+00 0.000E+00 0.000E+00 0.000E+00
BIGSUB   2        0    6.37400E+03     3.200     0.000   209.116    57.999     0.000     0.000     0.000     0.000     0.057     0.000     0.000     0.000     0.000     0.000     0.000     0.057     0.000     0.000 .00000E+00 0.000E+00 0.000E+00 0.000E+00
BIGSUB   3        0    6.14590E+04     3.200     0.000   209.138    59.046     0.000     0.000     0.000     0.000     0.050     0.000     0.000     0.000     0.000     0.000     0.000     0.050     0.000     0.000 .00000E+00 0.000E+00 0.000E+00 0.000E+00
BIGSUB   4        0    6.91800E+03     3.200     0.000   209.135    59.999     0.000     0.000     0.000     0.000     0.030     0.000     0.000     0.000     0.000     0.000     0.000     0.030     0.000     0.000 .00000E+00 0.000E+00 0.000E+00 0.000E+00
BIGSUB   5        0    6.37770E+04     3.200     0.000   209.098    53.652     0.000     0.000     0.000     0.000     0.030     0.000     0.000     0.000     0.000     0.000     0.000     0.030     0.000     0.000 .00000E+00 0.000E+00 0.000E+00 0.000E+00
BIGSUB   6        0    6.18250E+04     3.200     0.000   209.052    46.831     0.000     0.000     0.000     0.000     0.048     0.000     0.000     0.000     0.000     0.000     0.000     0.048     0.000     0.000 .00000E+00 0.000E+00 0.000E+00 0.000E+00
BIGSUB   7        0    6.14660E+04     3.200     0.000   209.048    41.480     0.000     0.000     0.000     0.000     0.006     0.000     0.000     0.000     0.000     0.000     0.000     0.006     0.000     0.000 .00000E+00 0.000E+00 0.000E+00 0.000E+00
BIGSUB   8        0    6.34940E+04     3.200     0.000   208.953    40.172     0.000     0.000     0.000     0.000     0.031     0.000     0.000     0.000     0.000     0.000     0.000     0.031     0.000     0.000 .00000E+00 0.000E+00 0.000E+00 0.000E+00
BIGSUB   9        0    6.47420E+04     0.000     0.000   194.207    41.270     4.281     0.000     0.000     0.000     0.022     0.000     0.000     0.000     0.000     0.000     0.000     0.022     0.000     0.000 .00000E+00 0.000E+00 0.000E+00 0.000E+00
BIGSUB  10        0    6.13380E+04     0.000     0.000   194.144    35.037     5.261     0.000     0.000     0.000     0.014     0.000     0.000     0.000     0.000     0.000     0.000     0.014     0.000     0.000 .00000E+00 0.000E+00 0.000E+00 0.000E+00
BIGSUB  11        0    6.24060E+04     0.000     0.000   163.238    45.013     0.000     0.000     0.304     0.000     0.318     0.000     0.038     0.004     0.001     0.000     0.008     0.014     0.000     0.000 .00000E+00 0.000E+00 0.000E+00 0.000E+00
BIGSUB  12        0    6.19770E+04     0.000     0.000   178.358    47.673    21.187     0.000     0.000     0.000     0.012     0.000     0.000     0.000     0.000     0.000     0.000     0.012     0.000     0.000 .00000E+00 0.000E+00 0.000E+00 0.000E+00
BIGSUB  13        0    6.16410E+04     0.000     0.000   163.194    40.175     2.198     0.000     0.600     0.000     0.607     0.000     0.076     0.009     0.001     0.000     0.017     0.006     0.000     0.000 .00000E+00 0.000E+00 0.000E+00 0.000E+00
BIGSUB  14        0    6.52740E+04     0.000     0.000   178.273    44.206    35.980     0.000     0.000     0.000     0.023     0.000     0.000     0.000     0.000     0.000     0.000     0.023     0.000     0.000 .00000E+00 0.000E+00 0.000E+00 0.000E+00
BIGSUB  15        0    6.42200E+03     0.000     0.000   163.150    42.493     3.433     0.000     0.062     0.000     0.070     0.000     0.006     0.001     0.000     0.000     0.001     0.008     0.000     0.000 .00000E+00 0.000E+00 0.000E+00 0.000E+00
BIGSUB  16        0    6.13850E+04     0.000     0.000   163.112    49.277     0.834     0.000     0.120     0.000     0.130     0.000     0.010     0.001     0.000     0.000     0.002     0.011     0.000     0.000 .00000E+00 0.000E+00 0.000E+00 0.000E+00
BIGSUB  17        0    6.17180E+04     0.000     0.000   178.180    41.500    17.078     0.000     0.000     0.000     0.005     0.000     0.000     0.000     0.000     0.000     0.000     0.005     0.000     0.000 .00000E+00 0.000E+00 0.000E+00 0.000E+00
BIGSUB  18        0    6.26090E+04     0.000     0.000   178.211    45.747    46.590     0.000     0.000     0.000     0.019     0.000     0.000     0.000     0.000     0.000     0.000     0.019     0.000     0.000 .00000E+00 0.000E+00 0.000E+00 0.000E+00
BIGSUB  19        0    6.25380E+04     0.000     0.000   178.116    45.043    42.490     0.000     0.000     0.000     0.026     0.000     0.000     0.000     0.000     0.000     0.000     0.026     0.000     0.000 .00000E+00 0.000E+00 0.000E+00 0.000E+00
BIGSUB  20        0    6.19820E+04     0.000     0.000   178.086    44.925    40.695     0.000     0.000     0.000     0.029     0.000     0.000     0.000     0.000     0.000     0.000     0.029     0.000     0.000 .00000E+00 0.000E+00 0.000E+00 0.000E+00
BIGSUB   1        0    7.12360E+04     0.000     0.000   212.019     0.000     0.000     0.000     0.000     0.000     0.019     0.000     0.000     0.000     0.000     0.000     0.000     0.019     0.000     0.000 .00000E+00 0.000E+00 0.000E+00 0.000E+00
BIGSUB   2        0    7.37400E+03     0.000     0.000   212.020     0.000     0.000     0.000     0.000     0.000     0.033     0.000     0.000     0.000     0.000     0.000     0.000     0.033     0.000     0.000 .00000E+00 0.000E+00 0.000E+00 0.000E+00
BIGSUB   3        0    7.14590E+04     0.000     0.000   212.019     0.000     0.000     0.000     0.000     0.000     0.039     0.000     0.000     0.000     0.000     0.000     0.000     0.039     0.000     0.000 .00000E+00 0.000E+00 0.000E+00 0.000E+00
BIGSUB   4        0    7.91800E+03     0.000     0.000   212.019     0.000     0.000     0.000     0.000     0.000     0.020     0.000     0.000     0.000     0.000     0.000     0.000     0.020     0.000     0.000 .00000E+00 0.000E+00 0.000E+00 0.000E+00
BIGSUB   5        0    7.37770E+04     0.000     0.000   212.020     0.000     0.000     0.000     0.000     0.000     0.022     0.000     0.000     0.000     0.000     0.000     0.000     0.022     0.000     0.000 .00000E+00 0.000E+00 0.000E+00 0.000E+00
BIGSUB   6        0    7.18250E+04     0.000     0.000   212.020     0.000     0.000     0.000     0.000     0.000     0.039     0.000     0.000     0.000     0.000     0.000     0.000     0.039     0.000     0.000 .00000E+00 0.000E+00 0.000E+00 0.000E+00
BIGSUB   7        0    7.14660E+04     0.000     0.000   212.020     0.000     0.000     0.000     0.000     0.000     0.006     0.000     0.000     0.000     0.000     0.000     0.000     0.006     0.000     0.000 .00000E+00 0.000E+00 0.000E+00 0.000E+00
BIGSUB   8        0    7.34940E+04     0.000     0.000   212.012     0.000     0.000     0.000     0.000     0.000     0.020     0.000     0.000     0.000     0.000     0.000     0.000     0.020     0.000     0.000 .00000E+00 0.000E+00 0.000E+00 0.000E+00
BIGSUB   9        0    7.47420E+04     1.000     0.000   196.409     5.281     0.000     0.000     0.000     0.000     0.013     0.000     0.000     0.000     0.000     0.000     0.000     0.013     0.000     0.000 .00000E+00 0.000E+00 0.000E+00 0.000E+00
BIGSUB  10        0    7.13380E+04     1.000     0.000   196.401     6.261     0.000     0.000     0.000     0.000     0.013     0.000     0.000     0.000     0.000     0.000     0.000     0.013     0.000     0.000 .00000E+00 0.000E+00 0.000E+00 0.000E+00
BIGSUB  11        0    7.24060E+04     9.668     0.000   180.777     9.664     0.000     0.000     0.000     0.000     0.013     0.000     0.000     0.000     0.000     0.000     0.000     0.013     0.000     0.000 .00000E+00 0.000E+00 0.000E+00 0.000E+00
BIGSUB  12        0    7.19770E+04     0.200     0.000   186.728    21.387     0.000     0.000     0.000     0.000     0.011     0.000     0.000     0.000     0.000     0.000     0.000     0.011     0.000     0.000 .00000E+00 0.000E+00 0.000E+00 0.000E+00
BIGSUB  13        0    7.16410E+04     9.668     0.000   180.767    11.865     0.000     0.000     0.000     0.000     0.006     0.000     0.000     0.000     0.000     0.000     0.000     0.006     0.000     0.000 .00000E+00 0.000E+00 0.000E+00 0.000E+00
BIGSUB  14        0    7.52740E+04     0.200     0.000   186.711    36.180     0.000     0.000     0.000     0.000     0.020     0.000     0.000     0.000     0.000     0.000     0.000     0.020     0.000     0.000 .00000E+00 0.000E+00 0.000E+00 0.000E+00
BIGSUB  15        0    7.42200E+03     9.668     0.000   180.756    13.099     0.000     0.000     0.000     0.000     0.008     0.000     0.000     0.000     0.000     0.000     0.000     0.008     0.000     0.000 .00000E+00 0.000E+00 0.000E+00 0.000E+00
BIGSUB  16        0    7.13850E+04     9.668     0.000   180.745    10.500     0.000     0.000     0.000     0.000     0.010     0.000     0.000     0.000     0.000     0.000     0.000     0.010     0.000     0.000 .00000E+00 0.000E+00 0.000E+00 0.000E+00
BIGSUB  17        0    7.17180E+04     0.200     0.000   186.687    17.278     0.000     0.000     0.000     0.000     0.005     0.000     0.000     0.000     0.000     0.000     0.000     0.005     0.000     0.000 .00000E+00 0.000E+00 0.000E+00 0.000E+00
BIGSUB  18        0    7.26090E+04     0.200     0.000   186.696    46.790     0.000     0.000     0.000     0.000     0.017     0.000     0.000     0.000     0.000     0.000     0.000     0.017     0.000     0.000 .00000E+00 0.000E+00 0.000E+00 0.000E+00
BIGSUB  19        0    7.25380E+04     0.200     0.000   186.668    42.690     0.000     0.000     0.000     0.000     0.015     0.000     0.000     0.000     0.000     0.000     0.000     0.015     0.000     0.000 .00000E+00 0.000E+00 0.000E+00 0.000E+00
BIGSUB  20        0    7.19820E+04     0.200     0.000   186.659    40.895     0.000     0.000     0.000     0.000     0.017     0.000     0.000     0.000     0.000     0.000     0.000     0.017     0.000     0.000 .00000E+00 0.000E+00 0.000E+00 0.000E+00
BIGSUB   1        0    8.12360E+04     0.000     0.000   189.929     0.000     0.000     0.000     0.000     0.000     0.012     0.000     0.000     0.000     0.000     0.000     0.000     0.012     0.000     0.000 .00000E+00 0.000E+00 0.000E+00 0.000E+00
BIGSUB   2        0    8.37400E+03     0.000     0.000   190.021     0.000     0.000     0.000     0.000     0.000     0.019     0.000     0.000     0.000     0.000     0.000     0.000     0.019     0.000     0.000 .00000E+00 0.000E+00 0.000E+00 0.000E+00
BIGSUB   3        0    8.14590E+04     0.000     0.000   189.927     0.000     0.000     0.000     0.000     0.000     0.030     0.000     0.000     0.000     0.000     0.000     0.000     0.030     0.000     0.000 .00000E+00 0.000E+00 0.000E+00 0.000E+00
BIGSUB   4        0    8.91800E+03     0.000     0.000   189.943     0.000     0.000     0.000     0.000     0.000     0.013     0.000     0.000     0.000     0.000     0.000     0.000     0.013     0.000     0.000 .00000E+00 0.000E+00 0.000E+00 0.000E+00
BIGSUB   5        0    8.37770E+04     0.000     0.000   190.092     0.000     0.000     0.000     0.000     0.000     0.016     0.000     0.000     0.000     0.000     0.000     0.000     0.016     0.000     0.000 .00000E+00 0.000E+00 0.000E+00 0.000E+00
BIGSUB   6        0    8.18250E+04     0.000     0.000   190.268     0.000     0.000     0.000     0.000     0.000     0.030     0.000     0.000     0.000     0.000     0.000     0.000     0.030     0.000     0.000 .00000E+00 0.000E+00 0.000E+00 0.000E+00
BIGSUB   7        0    8.14660E+04     0.000     0.000   190.284     0.000     0.000     0.000     0.000     0.000     0.005     0.000     0.000     0.000     0.000     0.000     0.000     0.005     0.000     0.000 .00000E+00 0.000E+00 0.000E+00 0.000E+00
BIGSUB   8        0    8.34940E+04     0.000     0.000   190.617     0.000     0.000     0.000     0.000     0.000     0.013     0.000     0.000     0.000     0.000     0.000     0.000     0.013     0.000     0.000 .00000E+00 0.000E+00 0.000E+00 0.000E+00
BIGSUB   9        0    8.47420E+04     0.500     0.000   187.150     0.500     0.000     0.000     0.000     0.000     0.008     0.000     0.000     0.000     0.000     0.000     0.000     0.008     0.000     0.000 .00000E+00 0.000E+00 0.000E+00 0.000E+00
BIGSUB  10        0    8.13380E+04     0.500     0.000   187.362     0.500     0.000     0.000     0.000     0.000     0.011     0.000     0.000     0.000     0.000     0.000     0.000     0.011     0.000     0.000 .00000E+00 0.000E+00 0.000E+00 0.000E+00
BIGSUB  11        0    8.24060E+04     0.000     0.000   176.056     0.000     0.000     0.000     0.000     0.000     0.011     0.000     0.000     0.000     0.000     0.000     0.000     0.011     0.000     0.000 .00000E+00 0.000E+00 0.000E+00 0.000E+00
BIGSUB  12        0    8.19770E+04     0.000     0.000   180.679     0.000     0.000     0.000     0.000     0.000     0.010     0.000     0.000     0.000     0.000     0.000     0.000     0.009     0.000     0.000 .00000E+00 0.000E+00 0.000E+00 0.000E+00
BIGSUB  13        0    8.16410E+04     0.000     0.000   176.210     0.000     0.000     0.000     0.000     0.000     0.006     0.000     0.000     0.000     0.000     0.000     0.000     0.006     0.000     0.000 .00000E+00 0.000E+00 0.000E+00 0.000E+00
BIGSUB  14        0    8.52740E+04     0.000     0.000   180.945     0.000     0.000     0.000     0.000     0.000     0.017     0.000     0.000     0.000     0.000     0.000     0.000     0.017     0.000     0.000 .00000E+00 0.000E+00 0.000E+00 0.000E+00
BIGSUB  15        0    8.42200E+03     0.000     0.000   176.352     0.000     0.000     0.000     0.000     0.000     0.007     0.000     0.000     0.000     0.000     0.000     0.000     0.007     0.000     0.000 .00000E+00 0.000E+00 0.000E+00 0.000E+00
BIGSUB  16        0    8.13850E+04     0.000     0.000   176.472     0.000     0.000     0.000     0.000     0.000     0.008     0.000     0.000     0.000     0.000     0.000     0.000     0.008     0.000     0.000 .00000E+00 0.000E+00 0.000E+00 0.000E+00
BIGSUB  17        0    8.17180E+04     0.000     0.000   181.211     0.000     0.000     0.000     0.000     0.000     0.004     0.000     0.000     0.000     0.000     0.000     0.000     0.004     0.000     0.000 .00000E+00 0.000E+00 0.000E+00 0.000E+00
BIGSUB  18        0    8.26090E+04     0.000     0.000   181.126     0.000     0.000     0.000     0.000     0.000     0.015     0.000     0.000     0.000     0.000     0.000     0.000     0.015     0.000     0.000 .00000E+00 0.000E+00 0.000E+00 0.000E+00
BIGSUB  19        0    8.25380E+04     0.000     0.000   181.382     0.000     0.000     0.000     0.000     0.000     0.010     0.000     0.000     0.000     0.000     0.000     0.000     0.010     0.000     0.000 .00000E+00 0.000E+00 0.000E+00 0.000E+00
BIGSUB  20        0    8.19820E+04     0.000     0.000   181.460     0.000     0.000     0.000     0.000     0.000     0.010     0.000     0.000     0.000     0.000     0.000     0.000     0.010     0.000     0.000 .00000E+00 0.000E+00 0.000E+00 0.000E+00
BIGSUB   1        0    9.12360E+04     0.000     0.000   154.252     0.000     0.000     0.000     0.000     0.000     0.008     0.000     0.000     0.000     0.000     0.000     0.000     0.008     0.000     0.000 .00000E+00 0.000E+00 0.000E+00 0.000E+00
BIGSUB   2        0    9.37400E+03     0.000     0.000   154.449     0.000     0.000     0.000     0.000     0.000     0.015     0.000     0.000     0.000     0.000     0.000     0.000     0.015     0.000     0.000 .00000E+00 0.000E+00 0.000E+00 0.000E+00
BIGSUB   3        0    9.14590E+04     0.000     0.000   154.247     0.000     0.000     0.000     0.000     0.000     0.023     0.000     0.000     0.000     0.000     0.000     0.000     0.023     0.000     0.000 .00000E+00 0.000E+00 0.000E+00 0.000E+00
BIGSUB   4        0    9.91800E+03     0.000     0.000   154.282     0.000     0.000     0.000     0.000     0.000     0.010     0.000     0.000     0.000     0.000     0.000     0.000     0.010     0.000     0.000 .00000E+00 0.000E+00 0.000E+00 0.000E+00
BIGSUB   5        0    9.37770E+04     0.000     0.000   154.602     0.000     0.000     0.000     0.000     0.000     0.012     0.000     0.000     0.000     0.000     0.000     0.000     0.012     0.000     0.000 .00000E+00 0.000E+00 0.000E+00 0.000E+00
BIGSUB   6        0    9.18250E+04     0.000     0.000   154.982     0.000     0.000     0.000     0.000     0.000     0.022     0.000     0.000     0.000     0.000     0.000     0.000     0.022     0.000     0.000 .00000E+00 0.000E+00 0.000E+00 0.000E+00
BIGSUB   7        0    9.14660E+04     0.000     0.000   155.018     0.000     0.000     0.000     0.000     0.000     0.005     0.000     0.000     0.000     0.000     0.000     0.000     0.005     0.000     0.000 .00000E+00 0.000E+00 0.000E+00 0.000E+00
BIGSUB   8        0    9.34940E+04     0.000     0.000   155.749     0.000     0.000     0.000     0.000     0.000     0.009     0.000     0.000     0.000     0.000     0.000     0.000     0.009     0.000     0.000 .00000E+00 0.000E+00 0.000E+00 0.000E+00
BIGSUB   9        0    9.47420E+04     0.000     0.000   151.075     0.000     0.000     0.000     0.000     0.000     0.006     0.000     0.000     0.000     0.000     0.000     0.000     0.006     0.000     0.000 .00000E+00 0.000E+00 0.000E+00 0.000E+00
BIGSUB  10        0    9.13380E+04     0.000     0.000   151.541     0.000     0.000     0.000     0.000     0.000     0.009     0.000     0.000     0.000     0.000     0.000     0.000     0.009     0.000     0.000 .00000E+00 0.000E+00 0.000E+00 0.000E+00
BIGSUB  11        0    9.24060E+04     1.380     0.000   121.829     1.380     0.000     0.000     0.000     0.000     0.009     0.000     0.000     0.000     0.000     0.000     0.000     0.009     0.000     0.000 .00000E+00 0.000E+00 0.000E+00 0.000E+00
BIGSUB  12        0    9.19770E+04     0.000     0.000   137.300     0.000     0.000     0.000     0.000     0.000     0.008     0.000     0.000     0.000     0.000     0.000     0.000     0.008     0.000     0.000 .00000E+00 0.000E+00 0.000E+00 0.000E+00
BIGSUB  13        0    9.16410E+04     1.380     0.000   122.115     1.380     0.000     0.000     0.000     0.000     0.005     0.000     0.000     0.000     0.000     0.000     0.000     0.005     0.000     0.000 .00000E+00 0.000E+00 0.000E+00 0.000E+00
BIGSUB  14        0    9.52740E+04     0.000     0.000   137.661     0.000     0.000     0.000     0.000     0.000     0.014     0.000     0.000     0.000     0.000     0.000     0.000     0.014     0.000     0.000 .00000E+00 0.000E+00 0.000E+00 0.000E+00
BIGSUB  15        0    9.42200E+03     1.380     0.000   122.381     1.380     0.000     0.000     0.000     0.000     0.006     0.000     0.000     0.000     0.000     0.000     0.000     0.006     0.000     0.000 .00000E+00 0.000E+00 0.000E+00 0.000E+00
BIGSUB  16        0    9.13850E+04     1.380     0.000   122.608     1.380     0.000     0.000     0.000     0.000     0.007     0.000     0.000     0.000     0.000     0.000     0.000     0.007     0.000     0.000 .00000E+00 0.000E+00 0.000E+00 0.000E+00
BIGSUB  17        0    9.17180E+04     0.000     0.000   138.230     0.000     0.000     0.000     0.000     0.000     0.004     0.000     0.000     0.000     0.000     0.000     0.000     0.004     0.000     0.000 .00000E+00 0.000E+00 0.000E+00 0.000E+00
BIGSUB  18        0    9.26090E+04     0.000     0.000   138.047     0.000     0.000     0.000     0.000     0.000     0.013     0.000     0.000     0.000     0.000     0.000     0.000     0.013     0.000     0.000 .00000E+00 0.000E+00 0.000E+00 0.000E+00
BIGSUB  19        0    9.25380E+04     0.000     0.000   138.599     0.000     0.000     0.000     0.000     0.000     0.007     0.000     0.000     0.000     0.000     0.000     0.000     0.007     0.000     0.000 .00000E+00 0.000E+00 0.000E+00 0.000E+00
BIGSUB  20        0    9.19820E+04     0.000     0.000   138.769     0.000     0.000     0.000     0.000     0.000     0.007     0.000     0.000     0.000     0.000     0.000     0.000     0.007     0.000     0.000 .00000E+00 0.000E+00 0.000E+00 0.000E+00
BIGSUB   1        0   10.12360E+04    17.900     0.000    88.216     9.225     8.652     0.000     0.000     0.000     0.013     0.000     0.000     0.000     0.000     0.000     0.000     0.013     0.000     0.000 .00000E+00 0.000E+00 0.000E+00 0.000E+00
BIGSUB   2        0   10.37400E+03    17.900     0.000    88.421     9.244     8.552     0.000     0.000     0.000     0.070     0.000     0.000     0.000     0.000     0.000     0.000     0.070     0.000     0.000 .00000E+00 0.000E+00 0.000E+00 0.000E+00
BIGSUB   3        0   10.14590E+04    17.900     0.000    88.212     9.265     8.602     0.000     0.000     0.000     0.027     0.000     0.000     0.000     0.000     0.000     0.000     0.026     0.000     0.000 .00000E+00 0.000E+00 0.000E+00 0.000E+00
BIGSUB   4        0   10.91800E+03    17.900     0.000    88.247     9.243     8.634     0.000     0.000     0.000     0.014     0.000     0.000     0.000     0.000     0.000     0.000     0.014     0.000     0.000 .00000E+00 0.000E+00 0.000E+00 0.000E+00
BIGSUB   5        0   10.37770E+04    17.900     0.000    88.580     9.310     8.570     0.000     0.000     0.000     0.014     0.000     0.000     0.000     0.000     0.000     0.000     0.014     0.000     0.000 .00000E+00 0.000E+00 0.000E+00 0.000E+00
BIGSUB   6        0   10.18250E+04    17.900     0.000    88.976     9.413     8.459     0.000     0.000     0.000     0.021     0.000     0.000     0.000     0.000     0.000     0.000     0.021     0.000     0.000 .00000E+00 0.000E+00 0.000E+00 0.000E+00
BIGSUB   7        0   10.14660E+04    17.900     0.000    89.013     9.189     8.707     0.000     0.000     0.000     0.005     0.000     0.000     0.000     0.000     0.000     0.000     0.005     0.000     0.000 .00000E+00 0.000E+00 0.000E+00 0.000E+00
BIGSUB   8        0   10.34940E+04    17.900     0.000    89.777     9.248     8.628     0.000     0.000     0.000     0.014     0.000     0.000     0.000     0.000     0.000     0.000     0.014     0.000     0.000 .00000E+00 0.000E+00 0.000E+00 0.000E+00
BIGSUB   9        0   10.47420E+04    20.400     0.000    81.612     9.857    10.520     0.000     0.000     0.000     0.007     0.000     0.000     0.000     0.000     0.000     0.000     0.007     0.000     0.000 .00000E+00 0.000E+00 0.000E+00 0.000E+00
BIGSUB  10        0   10.13380E+04    20.400     0.000    82.069     9.369    11.017     0.000     0.000     0.000     0.009     0.000     0.000     0.000     0.000     0.000     0.000     0.009     0.000     0.000 .00000E+00 0.000E+00 0.000E+00 0.000E+00
BIGSUB  11        0   10.24060E+04    19.432     0.000    65.404    11.805     7.615     0.000     0.000     0.000     0.009     0.000     0.000     0.000     0.000     0.000     0.000     0.009     0.000     0.000 .00000E+00 0.000E+00 0.000E+00 0.000E+00
BIGSUB  12        0   10.19770E+04    18.400     0.000    73.005     6.229    12.162     0.000     0.000     0.000     0.007     0.000     0.000     0.000     0.000     0.000     0.000     0.007     0.000     0.000 .00000E+00 0.000E+00 0.000E+00 0.000E+00
BIGSUB  13        0   10.16410E+04    19.432     0.000    65.694    11.648     7.779     0.000     0.000     0.000     0.005     0.000     0.000     0.000     0.000     0.000     0.000     0.005     0.000     0.000 .00000E+00 0.000E+00 0.000E+00 0.000E+00
BIGSUB  14        0   10.52740E+04    18.400     0.000    73.547     6.555    11.831     0.000     0.000     0.000     0.012     0.000     0.000     0.000     0.000     0.000     0.000     0.012     0.000     0.000 .00000E+00 0.000E+00 0.000E+00 0.000E+00
BIGSUB  15        0   10.42200E+03    19.432     0.000    65.964    11.837     7.588     0.000     0.000     0.000     0.006     0.000     0.000     0.000     0.000     0.000     0.000     0.006     0.000     0.000 .00000E+00 0.000E+00 0.000E+00 0.000E+00
BIGSUB  16        0   10.13850E+04    19.432     0.000    66.195    12.245     7.179     0.000     0.000     0.000     0.007     0.000     0.000     0.000     0.000     0.000     0.000     0.007     0.000     0.000 .00000E+00 0.000E+00 0.000E+00 0.000E+00
BIGSUB  17        0   10.17180E+04    18.400     0.000    74.101     6.787    11.610     0.000     0.000     0.000     0.004     0.000     0.000     0.000     0.000     0.000     0.000     0.004     0.000     0.000 .00000E+00 0.000E+00 0.000E+00 0.000E+00
BIGSUB  18        0   10.26090E+04    18.400     0.000    73.922     6.529    11.860     0.000     0.000     0.000     0.012     0.000     0.000     0.000     0.000     0.000     0.000     0.012     0.000     0.000 .00000E+00 0.000E+00 0.000E+00 0.000E+00
BIGSUB  19        0   10.25380E+04    18.400     0.000    74.462     6.705    11.673     0.000     0.000     0.000     0.007     0.000     0.000     0.000     0.000     0.000     0.000     0.007     0.000     0.000 .00000E+00 0.000E+00 0.000E+00 0.000E+00
BIGSUB  20        0   10.19820E+04    18.400     0.000    74.629     6.760    11.615     0.000     0.000     0.000     0.008     0.000     0.000     0.000     0.000     0.000     0.000     0.008     0.000     0.000 .00000E+00 0.000E+00 0.000E+00 0.000E+00
BIGSUB   1        0   11.12360E+04    13.000     0.000    54.578     7.524    14.107     0.000     0.000     0.000     0.020     0.000     0.000     0.000     0.000     0.000     0.000     0.019     0.000     0.000 .00000E+00 0.000E+00 0.000E+00 0.000E+00
BIGSUB   2        0   11.37400E+03    13.000     0.000    54.774     7.450    14.006     0.000     0.000     0.000     0.106     0.000     0.000     0.000     0.000     0.000     0.000     0.105     0.000     0.000 .00000E+00 0.000E+00 0.000E+00 0.000E+00
BIGSUB   3        0   11.14590E+04    13.000     0.000    54.573     7.338    14.233     0.000     0.000     0.000     0.032     0.000     0.000     0.000     0.000     0.000     0.000     0.031     0.000     0.000 .00000E+00 0.000E+00 0.000E+00 0.000E+00
BIGSUB   4        0   11.91800E+03    13.000     0.000    54.607     7.453    14.160     0.000     0.000     0.000     0.020     0.000     0.000     0.000     0.000     0.000     0.000     0.020     0.000     0.000 .00000E+00 0.000E+00 0.000E+00 0.000E+00
BIGSUB   5        0   11.37770E+04    13.000     0.000    54.927     7.374    14.161     0.000     0.007     0.000     0.025     0.000     0.000     0.000     0.000     0.000     0.000     0.018     0.000     0.000 .00000E+00 0.000E+00 0.000E+00 0.000E+00
BIGSUB   6        0   11.18250E+04    13.000     0.000    55.309     7.317    14.090     0.000     0.011     0.000     0.034     0.000     0.000     0.000     0.000     0.000     0.000     0.023     0.000     0.000 .00000E+00 0.000E+00 0.000E+00 0.000E+00
BIGSUB   7        0   11.14660E+04    13.000     0.000    55.344     8.554    12.824     0.000     0.223     0.000     0.227     0.000     0.000     0.000     0.001     0.000     0.000     0.004     0.000     0.000 .00000E+00 0.000E+00 0.000E+00 0.000E+00
BIGSUB   8        0   11.34940E+04    13.000     0.000    56.082     8.370    13.099     0.000     0.113     0.000     0.133     0.008     0.007     0.001     0.000     0.000     0.002     0.020     0.000     0.000 .00000E+00 0.000E+00 0.000E+00 0.000E+00
BIGSUB   9        0   11.47420E+04     0.800     0.000    51.550    11.321     0.000     0.000     0.000     0.000     0.012     0.000     0.000     0.000     0.000     0.000     0.000     0.012     0.000     0.000 .00000E+00 0.000E+00 0.000E+00 0.000E+00
BIGSUB  10        0   11.13380E+04     0.800     0.000    52.001    11.817     0.000     0.000     0.000     0.000     0.009     0.000     0.000     0.000     0.000     0.000     0.000     0.009     0.000     0.000 .00000E+00 0.000E+00 0.000E+00 0.000E+00
BIGSUB  11        0   11.24060E+04   110.416    10.535    36.286    29.261    72.836     0.000    14.680     0.000    14.697     0.303     0.456     0.054     0.038     0.002     0.102     0.017     0.000     0.000 .00000E+00 0.000E+00 0.000E+00 0.000E+00
BIGSUB  12        0   11.19770E+04     6.000     0.000    44.945    13.395     4.766     0.000     0.000     0.000     0.007     0.000     0.000     0.000     0.000     0.000     0.000     0.007     0.000     0.000 .00000E+00 0.000E+00 0.000E+00 0.000E+00
BIGSUB  13        0   11.16410E+04   110.416    10.535    36.535    28.865    68.746     0.000    19.048     0.000    19.055     0.279     0.508     0.060     0.049     0.002     0.113     0.007     0.000     0.000 .00000E+00 0.000E+00 0.000E+00 0.000E+00
BIGSUB  14        0   11.52740E+04     6.000     0.000    45.466    14.192     3.636     0.000     0.000     0.000     0.012     0.000     0.000     0.000     0.000     0.000     0.000     0.012     0.000     0.000 .00000E+00 0.000E+00 0.000E+00 0.000E+00
BIGSUB  15        0   11.42200E+03   110.416    10.535    36.767    29.325    73.162     0.000    14.554     0.000    14.564     0.181     0.300     0.035     0.037     0.002     0.067     0.010     0.000     0.000 .00000E+00 0.000E+00 0.000E+00 0.000E+00
BIGSUB  16        0   11.13850E+04   110.416    10.535    36.967    30.320    79.170     0.000     7.281     0.000     7.293     0.064     0.146     0.017     0.018     0.001     0.036     0.013     0.000     0.000 .00000E+00 0.000E+00 0.000E+00 0.000E+00
BIGSUB  17        0   11.17180E+04     6.000     0.000    46.001    13.207     4.401     0.000     0.000     0.000     0.004     0.000     0.000     0.000     0.000     0.000     0.000     0.004     0.000     0.000 .00000E+00 0.000E+00 0.000E+00 0.000E+00
BIGSUB  18        0   11.26090E+04     6.000     0.000    45.828    15.024     2.833     0.000     0.000     0.000     0.011     0.000     0.000     0.000     0.000     0.000     0.000     0.011     0.000     0.000 .00000E+00 0.000E+00 0.000E+00 0.000E+00
BIGSUB  19        0   11.25380E+04     6.000     0.000    46.349    14.794     2.873     0.000     0.000     0.000     0.015     0.000     0.000     0.000     0.000     0.000     0.000     0.015     0.000     0.000 .00000E+00 0.000E+00 0.000E+00 0.000E+00
BIGSUB  20        0   11.19820E+04     6.000     0.000    46.511    14.673     2.935     0.000     0.000     0.000     0.018     0.000     0.000     0.000     0.000     0.000     0.000     0.018     0.000     0.000 .00000E+00 0.000E+00 0.000E+00 0.000E+00
BIGSUB   1        0   12.12360E+04    39.000     0.000    27.257     7.547    34.157     0.000     0.292     0.000     0.320     0.004     0.007     0.001     0.001     0.000     0.002     0.028     0.000     0.000 .00000E+00 0.000E+00 0.000E+00 0.000E+00
BIGSUB   2        0   12.37400E+03    39.000     0.000    27.379     7.387    34.042     0.000     0.293     0.000     0.452     0.015     0.011     0.001     0.001     0.000     0.003     0.159     0.000     0.000 .00000E+00 0.000E+00 0.000E+00 0.000E+00
BIGSUB   3        0   12.14590E+04    39.000     0.000    27.255     7.134    34.697     0.000     0.263     0.000     0.303     0.007     0.008     0.001     0.001     0.000     0.002     0.040     0.000     0.000 .00000E+00 0.000E+00 0.000E+00 0.000E+00
BIGSUB   4        0   12.91800E+03    39.000     0.000    27.276     7.386    34.380     0.000     0.287     0.000     0.315     0.006     0.008     0.001     0.001     0.000     0.002     0.028     0.000     0.000 .00000E+00 0.000E+00 0.000E+00 0.000E+00
BIGSUB   5        0   12.37770E+04    39.000     0.000    27.473     7.159    34.212     0.000     0.609     0.000     0.632     0.010     0.023     0.003     0.003     0.000     0.005     0.024     0.000     0.000 .00000E+00 0.000E+00 0.000E+00 0.000E+00
BIGSUB   6        0   12.18250E+04    39.000     0.000    27.709     6.935    34.067     0.000     0.845     0.000     0.873     0.178     0.073     0.009     0.003     0.000     0.016     0.028     0.000     0.000 .00000E+00 0.000E+00 0.000E+00 0.000E+00
BIGSUB   7        0   12.14660E+04    39.000     0.000    27.731     8.617    28.845     0.000     3.042     0.000     3.047     0.051     0.131     0.016     0.012     0.000     0.030     0.005     0.000     0.000 .00000E+00 0.000E+00 0.000E+00 0.000E+00
BIGSUB   8        0   12.34940E+04    39.000     0.000    28.187     8.543    30.844     0.000     1.561     0.000     1.589     0.145     0.106     0.013     0.006     0.000     0.024     0.028     0.000     0.000 .00000E+00 0.000E+00 0.000E+00 0.000E+00
BIGSUB   9        0   12.47420E+04    15.300     0.100    28.129     3.249     1.651     0.000     0.000     0.000     0.007     0.000     0.000     0.000     0.000     0.000     0.000     0.007     0.000     0.000 .00000E+00 0.000E+00 0.000E+00 0.000E+00
BIGSUB  10        0   12.13380E+04    15.300     0.100    28.431     3.455     1.445     0.000     0.000     0.000     0.008     0.000     0.000     0.000     0.000     0.000     0.000     0.008     0.000     0.000 .00000E+00 0.000E+00 0.000E+00 0.000E+00
BIGSUB  11        0   12.24060E+04    22.312    16.670    21.931    16.107    70.541     0.000     8.245     0.000     8.266     0.206     0.339     0.039     0.044     0.001     0.075     0.021     0.000     0.000 .00000E+00 0.000E+00 0.000E+00 0.000E+00
BIGSUB  12        0   12.19770E+04    20.900     1.500    24.144     6.665     1.000     0.000     0.000     0.000     0.007     0.000     0.000     0.000     0.000     0.000     0.000     0.007     0.000     0.000 .00000E+00 0.000E+00 0.000E+00 0.000E+00
BIGSUB  13        0   12.16410E+04    22.312    16.667    22.113    15.611    66.881     0.000     8.294     0.000     8.302     0.153     0.268     0.031     0.044     0.001     0.058     0.008     0.000     0.000 .00000E+00 0.000E+00 0.000E+00 0.000E+00
BIGSUB  14        0   12.52740E+04    20.900     1.500    24.488     5.740     0.796     0.000     0.000     0.000     0.011     0.000     0.000     0.000     0.000     0.000     0.000     0.011     0.000     0.000 .00000E+00 0.000E+00 0.000E+00 0.000E+00
BIGSUB  15        0   12.42200E+03    22.312    16.664    22.284    15.999    70.985     0.000     8.308     0.000     8.320     0.155     0.254     0.030     0.043     0.001     0.056     0.012     0.000     0.000 .00000E+00 0.000E+00 0.000E+00 0.000E+00
BIGSUB  16        0   12.13850E+04    22.312    16.662    22.431    16.941    76.134     0.000     8.202     0.000     8.217     0.098     0.223     0.026     0.043     0.001     0.055     0.015     0.000     0.000 .00000E+00 0.000E+00 0.000E+00 0.000E+00
BIGSUB  17        0   12.17180E+04    20.900     1.500    24.842     6.911     0.390     0.000     0.000     0.000     0.004     0.000     0.000     0.000     0.000     0.000     0.000     0.004     0.000     0.000 .00000E+00 0.000E+00 0.000E+00 0.000E+00
BIGSUB  18        0   12.26090E+04    20.900     1.500    24.728     4.753     0.980     0.000     0.000     0.000     0.010     0.000     0.000     0.000     0.000     0.000     0.000     0.010     0.000     0.000 .00000E+00 0.000E+00 0.000E+00 0.000E+00
BIGSUB  19        0   12.25380E+04    20.900     1.500    25.073     5.006     0.767     0.000     0.000     0.000     0.010     0.000     0.000     0.000     0.000     0.000     0.000     0.010     0.000     0.000 .00000E+00 0.000E+00 0.000E+00 0.000E+00
BIGSUB  20        0   12.19820E+04    20.900     1.500    25.180     5.142     0.693     0.000     0.000     0.000     0.012     0.000     0.000     0.000     0.000     0.000     0.000     0.011     0.000     0.000 .00000E+00 0.000E+00 0.000E+00 0.000E+00
BIGSUB   1        0 1990.12360E+04   289.400    61.825  1311.747   237.253    34.157     0.000    35.930     0.000    36.331     9.079     9.106     1.076     0.191     0.006     2.210     0.400     0.003     0.000 .00000E+00 0.000E+00 0.000E+00 0.000E+00
BIGSUB   2        0 1990.37400E+03   289.400    61.823  1312.892   235.256    34.042     0.000    36.839     0.000    38.648    26.405    13.019     1.525     0.186     0.004     3.226     1.809     0.011     0.000 .00000E+00 0.000E+00 0.000E+00 0.000E+00
BIGSUB   3        0 1990.14590E+04   289.400    61.825  1311.723   237.755    34.697     0.000    36.295     0.000    36.894    15.248    10.763     1.265     0.169     0.005     2.872     0.598     0.004     0.000 .00000E+00 0.000E+00 0.000E+00 0.000E+00
BIGSUB   4        0 1990.91800E+03   289.400    61.825  1311.922   237.528    34.380     0.000    36.423     0.000    36.823    12.477     9.684     1.142     0.182     0.005     2.416     0.400     0.003     0.000 .00000E+00 0.000E+00 0.000E+00 0.000E+00
BIGSUB   5        0 1990.37770E+04   289.400    61.820  1313.779   231.542    34.212     0.000    40.722     0.000    41.083     7.968    10.647     1.266     0.195     0.006     2.405     0.361     0.002     0.000 .00000E+00 0.000E+00 0.000E+00 0.000E+00
BIGSUB   6        0 1990.18250E+04   289.400    61.815  1315.986   226.135    34.067     0.000    44.876     0.000    45.359    10.767    11.293     1.353     0.182     0.007     2.621     0.483     0.003     0.000 .00000E+00 0.000E+00 0.000E+00 0.000E+00
BIGSUB   7        0 1990.14660E+04   289.400    61.814  1316.192   203.850    28.845     0.000    61.447     0.000    61.513     6.021    11.137     1.335     0.381     0.010     2.506     0.066     0.001     0.000 .00000E+00 0.000E+00 0.000E+00 0.000E+00
BIGSUB   8        0 1990.34940E+04   289.400    61.804  1320.412   211.420    30.844     0.000    58.665     0.000    59.064    24.082    16.667     1.953     0.316     0.006     3.558     0.400     0.002     0.000 .00000E+00 0.000E+00 0.000E+00 0.000E+00
BIGSUB   9        0 1990.47420E+04   222.400    50.186  1239.538   197.018     1.651     0.000    30.008     0.000    30.223     4.651     7.410     0.874     0.193     0.007     1.901     0.215     0.003     0.000 .00000E+00 0.000E+00 0.000E+00 0.000E+00
BIGSUB  10        0 1990.13380E+04   222.400    50.176  1242.149   178.487     1.445     0.000    46.961     0.000    47.093    18.418    18.932     2.258     0.303     0.008     4.282     0.132     0.003     0.000 .00000E+00 0.000E+00 0.000E+00 0.000E+00
BIGSUB  11        0 1990.24060E+04   329.184    90.047  1078.785   216.020    70.541     0.000    64.898     0.000    65.051     3.905     5.064     0.573     0.432     0.008     1.080     0.153     0.001     0.000 .00000E+00 0.000E+00 0.000E+00 0.000E+00
BIGSUB  12        0 1990.19770E+04   292.300   105.788  1132.693   222.464     1.000     0.000    94.978     0.000    95.097     4.533    13.786     1.600     0.605     0.018     2.691     0.119     0.002     0.000 .00000E+00 0.000E+00 0.000E+00 0.000E+00
BIGSUB  13        0 1990.16410E+04   329.184    90.042  1080.497   208.185    66.881     0.000    75.310     0.116    75.499     3.818     5.589     0.639     0.479     0.009     1.187     0.073     0.001     0.003 .00000E+00 0.000E+00 0.000E+00 0.000E+00
BIGSUB  14        0 1990.52740E+04   292.300   105.763  1135.523   231.294     0.796     0.000    81.571     0.000    81.794     4.046    10.512     1.211     0.522     0.015     2.204     0.223     0.004     0.000 .00000E+00 0.000E+00 0.000E+00 0.000E+00
BIGSUB  15        0 1990.42200E+03   329.184    90.037  1082.085   214.874    70.985     0.000    65.859     0.174    66.123     2.771     4.134     0.473     0.473     0.009     0.884     0.091     0.001     0.005 .00000E+00 0.000E+00 0.000E+00 0.000E+00
BIGSUB  16        0 1990.13850E+04   329.184    90.032  1083.443   225.918    76.134     0.000    50.070     0.000    50.185     0.973     2.218     0.248     0.419     0.008     0.517     0.115     0.001     0.000 .00000E+00 0.000E+00 0.000E+00 0.000E+00
BIGSUB  17        0 1990.17180E+04   292.300   105.737  1138.596   200.028     0.390     0.000   106.294     0.000   106.349     3.725    11.138     1.300     0.724     0.021     2.424     0.055     0.001     0.000 .00000E+00 0.000E+00 0.000E+00 0.000E+00
BIGSUB  18        0 1990.26090E+04   292.300   105.745  1137.606   249.283     0.980     0.000    67.338     0.000    67.526     1.457     4.770     0.542     0.399     0.015     1.222     0.189     0.003     0.000 .00000E+00 0.000E+00 0.000E+00 0.000E+00
BIGSUB  19        0 1990.25380E+04   292.300   105.720  1140.582   242.217     0.767     0.054    75.083     0.000    75.412     5.295     9.679     1.097     0.453     0.014     2.070     0.329     0.005     0.000 .00000E+00 0.000E+00 0.000E+00 0.000E+00
BIGSUB  20        0 1990.19820E+04   292.300   105.712  1141.498   240.234     0.693     0.013    76.628     0.000    77.008     5.707    10.774     1.221     0.464     0.014     2.325     0.380     0.006     0.000 .00000E+00 0.000E+00 0.000E+00 0.000E+00
BIGSUB   1        0    1.12360E+04    19.100    26.211    17.848     8.376    54.991     0.000     0.612     0.000     0.641     0.077     0.087     0.010     0.008     0.000     0.020     0.029     0.000     0.000 .00000E+00 0.000E+00 0.000E+00 0.000E+00
BIGSUB   2        0    1.37400E+03    19.100    26.207    17.919     8.327    54.852     0.000     0.605     0.000     0.748     0.248     0.141     0.016     0.008     0.000     0.032     0.143     0.001     0.000 .00000E+00 0.000E+00 0.000E+00 0.000E+00
BIGSUB   3        0    1.14590E+04    19.100    26.211    17.846     8.019    56.006     0.000     0.540     0.000     0.581     0.131     0.100     0.011     0.008     0.000     0.025     0.041     0.000     0.000 .00000E+00 0.000E+00 0.000E+00 0.000E+00
BIGSUB   4        0    1.91800E+03    19.100    26.210    17.859     8.238    55.401     0.000     0.621     0.000     0.651     0.121     0.108     0.012     0.009     0.000     0.025     0.029     0.000     0.000 .00000E+00 0.000E+00 0.000E+00 0.000E+00
BIGSUB   5        0    1.37770E+04    19.100    26.204    17.975     8.150    55.091     0.000     0.565     0.000     0.589     0.034     0.046     0.005     0.007     0.000     0.010     0.025     0.000     0.000 .00000E+00 0.000E+00 0.000E+00 0.000E+00
BIGSUB   6        0    1.18250E+04    19.100    26.198    18.114     7.981    54.967     0.000     0.637     0.000     0.666     0.114     0.053     0.007     0.006     0.000     0.012     0.028     0.000     0.000 .00000E+00 0.000E+00 0.000E+00 0.000E+00
BIGSUB   7        0    1.14660E+04    19.100    26.197    18.127     8.979    46.602     0.000     2.412     0.000     2.416     0.107     0.242     0.029     0.015     0.000     0.054     0.005     0.000     0.000 .00000E+00 0.000E+00 0.000E+00 0.000E+00
BIGSUB   8        0    1.34940E+04    19.100    26.184    18.396     9.044    46.976     0.000     4.236     0.000     4.266     1.536     1.118     0.131     0.030     0.000     0.244     0.030     0.000     0.000 .00000E+00 0.000E+00 0.000E+00 0.000E+00
BIGSUB   9        0    1.47420E+04    34.700    18.450    19.588     3.416    17.719     0.000     0.000     0.000     0.007     0.000     0.000     0.000     0.000     0.000     0.000     0.007     0.000     0.000 .00000E+00 0.000E+00 0.000E+00 0.000E+00
BIGSUB  10        0    1.13380E+04    34.700    18.450    19.780     3.465    17.360     0.000     0.018     0.000     0.026     0.000     0.000     0.000     0.001     0.000     0.000     0.007     0.000     0.000 .00000E+00 0.000E+00 0.000E+00 0.000E+00
BIGSUB  11        0    1.24060E+04    29.257     2.915    19.324     6.177    66.271     0.000     0.921     0.000     0.939     0.056     0.088     0.010     0.063     0.000     0.019     0.018     0.000     0.000 .00000E+00 0.000E+00 0.000E+00 0.000E+00
BIGSUB  12        0    1.19770E+04    38.200     3.825    14.975     3.165     1.660     0.000     0.000     0.000     0.006     0.000     0.000     0.000     0.000     0.000     0.000     0.006     0.000     0.000 .00000E+00 0.000E+00 0.000E+00 0.000E+00
BIGSUB  13        0    1.16410E+04    29.257     2.915    19.471     5.702    63.086     0.000     0.919     0.000     0.926     0.042     0.073     0.008     0.057     0.000     0.015     0.008     0.000     0.000 .00000E+00 0.000E+00 0.000E+00 0.000E+00
BIGSUB  14        0    1.52740E+04    38.200     3.825    15.072     2.631     1.989     0.000     0.000     0.000     0.009     0.000     0.000     0.000     0.000     0.000     0.000     0.009     0.000     0.000 .00000E+00 0.000E+00 0.000E+00 0.000E+00
BIGSUB  15        0    1.42200E+03    29.257     2.915    19.608     5.928    66.964     0.000     0.934     0.000     0.944     0.042     0.068     0.008     0.063     0.000     0.014     0.010     0.000     0.000 .00000E+00 0.000E+00 0.000E+00 0.000E+00
BIGSUB  16        0    1.13850E+04    29.257     2.915    19.726     6.602    71.439     0.000     0.917     0.000     0.930     0.026     0.058     0.006     0.069     0.000     0.014     0.013     0.000     0.000 .00000E+00 0.000E+00 0.000E+00 0.000E+00
BIGSUB  17        0    1.17180E+04    38.200     3.825    15.271     2.504     1.711     0.000     0.000     0.000     0.003     0.000     0.000     0.000     0.000     0.000     0.000     0.003     0.000     0.000 .00000E+00 0.000E+00 0.000E+00 0.000E+00
BIGSUB  18        0    1.26090E+04    38.200     3.825    15.207     2.697     2.108     0.000     0.000     0.000     0.009     0.000     0.000     0.000     0.000     0.000     0.000     0.009     0.000     0.000 .00000E+00 0.000E+00 0.000E+00 0.000E+00
BIGSUB  19        0    1.25380E+04    38.200     3.825    15.401     2.593     1.997     0.000     0.000     0.000     0.007     0.000     0.000     0.000     0.000     0.000     0.000     0.007     0.000     0.000 .00000E+00 0.000E+00 0.000E+00 0.000E+00
BIGSUB  20        0    1.19820E+04    38.200     3.825    15.461     2.556     1.960     0.000     0.000     0.000     0.008     0.000     0.000     0.000     0.000     0.000     0.000     0.008     0.000     0.000 .00000E+00 0.000E+00 0.000E+00 0.000E+00
BIGSUB   1        0    2.12360E+04    41.900    22.300    31.255    18.823    76.271     0.000     1.359     0.000     1.386     0.212     0.275     0.032     0.011     0.000     0.056     0.026     0.000     0.000 .00000E+00 0.000E+00 0.000E+00 0.000E+00
BIGSUB   2        0    2.37400E+03    41.900    22.300    31.343    19.021    75.886     0.000     1.161     0.000     1.280     0.562     0.334     0.038     0.009     0.000     0.068     0.119     0.001     0.000 .00000E+00 0.000E+00 0.000E+00 0.000E+00
BIGSUB   3        0    2.14590E+04    41.900    22.300    31.253    18.510    78.330     0.000     0.737     0.000     0.773     0.304     0.202     0.023     0.007     0.000     0.040     0.036     0.000     0.000 .00000E+00 0.000E+00 0.000E+00 0.000E+00
BIGSUB   4        0    2.91800E+03    41.900    22.300    31.268    18.703    77.104     0.000     1.117     0.000     1.143     0.289     0.259     0.030     0.009     0.000     0.052     0.026     0.000     0.000 .00000E+00 0.000E+00 0.000E+00 0.000E+00
BIGSUB   5        0    2.37770E+04    41.900    22.300    31.412    18.995    75.332     0.000     1.819     0.000     1.840     0.259     0.346     0.041     0.012     0.000     0.077     0.021     0.000     0.000 .00000E+00 0.000E+00 0.000E+00 0.000E+00
BIGSUB   6        0    2.18250E+04    41.900    22.300    31.584    18.881    74.796     0.000     2.161     0.000     2.184     0.655     0.476     0.057     0.011     0.000     0.109     0.023     0.000     0.000 .00000E+00 0.000E+00 0.000E+00 0.000E+00
BIGSUB   7        0    2.14660E+04    41.900    22.300    31.601    18.060    60.681     0.000     7.658     0.000     7.663     0.819     1.300     0.155     0.045     0.001     0.292     0.004     0.000     0.000 .00000E+00 0.000E+00 0.000E+00 0.000E+00
BIGSUB   8        0    2.34940E+04    41.900    22.300    31.731    18.597    58.353     0.000    11.050     0.000    11.076     2.512     2.408     0.283     0.066     0.001     0.527     0.026     0.000     0.000 .00000E+00 0.000E+00 0.000E+00 0.000E+00
BIGSUB   9        0    2.47420E+04    36.500    31.497    24.351    14.143    44.986     0.000    15.888     0.000    15.897     1.607     2.613     0.299     0.098     0.003     0.682     0.009     0.000     0.000 .00000E+00 0.000E+00 0.000E+00 0.000E+00
BIGSUB  10        0    2.13380E+04    36.500    31.484    24.516    16.012    35.110     0.000    27.068     0.000    27.075     7.408     8.327     0.964     0.169     0.004     1.789     0.007     0.000     0.000 .00000E+00 0.000E+00 0.000E+00 0.000E+00
BIGSUB  11        0    2.24060E+04    46.448    51.743    23.316    12.396    71.443     0.000    53.285     0.000    53.299     3.825     5.730     0.639     0.390     0.007     1.211     0.014     0.000     0.000 .00000E+00 0.000E+00 0.000E+00 0.000E+00
BIGSUB  12        0    2.19770E+04    56.500    68.625    17.346     6.535    74.392     0.000    13.792     0.000    13.796     0.469     1.207     0.136     0.038     0.002     0.227     0.005     0.000     0.000 .00000E+00 0.000E+00 0.000E+00 0.000E+00
BIGSUB  13        0    2.16410E+04    46.448    51.740    23.443    12.544    68.114     0.000    53.198     0.000    53.205     3.038     4.833     0.541     0.388     0.007     0.997     0.006     0.000     0.000 .00000E+00 0.000E+00 0.000E+00 0.000E+00
BIGSUB  14        0    2.52740E+04    56.500    68.625    17.503     5.981    75.292     0.000    12.208     0.000    12.216     0.948     1.670     0.186     0.041     0.002     0.316     0.008     0.000     0.000 .00000E+00 0.000E+00 0.000E+00 0.000E+00
BIGSUB  15        0    2.42200E+03    46.448    51.736    23.561    12.528    72.010     0.000    53.946     0.000    53.955     2.487     4.063     0.456     0.409     0.008     0.854     0.008     0.000     0.000 .00000E+00 0.000E+00 0.000E+00 0.000E+00
BIGSUB  16        0    2.13850E+04    46.448    51.733    23.662    12.329    76.685     0.000    53.318     0.000    53.328     1.807     3.748     0.418     0.394     0.009     0.893     0.010     0.000     0.000 .00000E+00 0.000E+00 0.000E+00 0.000E+00
BIGSUB  17        0    2.17180E+04    56.500    68.625    17.664     6.301    62.430     0.000    21.300     0.000    21.303     1.287     2.520     0.287     0.088     0.004     0.530     0.003     0.000     0.000 .00000E+00 0.000E+00 0.000E+00 0.000E+00
BIGSUB  18        0    2.26090E+04    56.500    68.625    17.612     5.908    82.731     0.000     7.421     0.000     7.428     0.167     0.427     0.046     0.019     0.002     0.102     0.008     0.000     0.000 .00000E+00 0.000E+00 0.000E+00 0.000E+00
BIGSUB  19        0    2.25380E+04    56.500    68.625    17.769     6.054    79.620     0.000    13.157     0.000    13.168     1.048     1.712     0.183     0.033     0.002     0.330     0.011     0.000     0.000 .00000E+00 0.000E+00 0.000E+00 0.000E+00
BIGSUB  20        0    2.19820E+04    56.500    68.625    17.817     6.105    79.029     0.000    13.557     0.000    13.571     1.096     1.869     0.199     0.035     0.002     0.365     0.013     0.000     0.000 .00000E+00 0.000E+00 0.000E+00 0.000E+00
BIGSUB   1        0    3.12360E+04    87.200    10.510    58.568    39.444   111.836     0.000    10.990     0.000    11.075     2.042     2.357     0.277     0.047     0.002     0.517     0.085     0.001     0.000 .00000E+00 0.000E+00 0.000E+00 0.000E+00
BIGSUB   2        0    3.37400E+03    87.200    10.509    58.665    39.636   109.942     0.000    11.667     0.000    12.292     5.598     3.303     0.385     0.048     0.001     0.763     0.625     0.006     0.000 .00000E+00 0.000E+00 0.000E+00 0.000E+00
BIGSUB   3        0    3.14590E+04    87.200    10.510    58.566    39.360   117.162     0.000     7.768     0.000     7.867     2.904     2.085     0.243     0.035     0.001     0.490     0.099     0.001     0.000 .00000E+00 0.000E+00 0.000E+00 0.000E+00
BIGSUB   4        0    3.91800E+03    87.200    10.510    58.583    39.421   114.005     0.000     9.836     0.000     9.918     2.492     2.281     0.267     0.042     0.001     0.510     0.082     0.001     0.000 .00000E+00 0.000E+00 0.000E+00 0.000E+00
BIGSUB   5        0    3.37770E+04    87.200    10.509    58.740    39.604   107.257     0.000    13.778     0.000    13.841     2.159     3.036     0.360     0.052     0.002     0.681     0.063     0.001     0.000 .00000E+00 0.000E+00 0.000E+00 0.000E+00
BIGSUB   6        0    3.18250E+04    87.200    10.507    58.926    39.604   105.601     0.000    14.563     0.000    14.622     3.180     3.247     0.390     0.049     0.002     0.756     0.060     0.001     0.000 .00000E+00 0.000E+00 0.000E+00 0.000E+00
BIGSUB   7        0    3.14660E+04    87.200    10.507    58.944    38.542    79.497     0.000    28.090     0.000    28.096     2.621     4.828     0.579     0.120     0.004     1.090     0.006     0.000     0.000 .00000E+00 0.000E+00 0.000E+00 0.000E+00
BIGSUB   8        0    3.34940E+04    87.200    10.504    59.303    39.065    83.833     0.000    21.128     0.000    21.206    10.605     6.002     0.707     0.095     0.002     1.298     0.078     0.001     0.000 .00000E+00 0.000E+00 0.000E+00 0.000E+00
BIGSUB   9        0    3.47420E+04    77.000    30.270    51.346    34.906    73.804     0.000    15.475     0.000    15.509     0.878     2.266     0.261     0.076     0.003     0.634     0.034     0.001     0.000 .00000E+00 0.000E+00 0.000E+00 0.000E+00
[...]
BIGSUB   3        0   11.14590E+04    30.200     5.400    38.527     9.264    22.116     0.000     0.157     0.000     0.181     0.007     0.009     0.001     0.000     0.000     0.003     0.024     0.000     0.000 .00000E+00 0.000E+00 0.000E+00 0.000E+00
BIGSUB   4        0   11.91800E+03    30.200     5.400    38.550     9.361    22.090     0.000     0.120     0.000     0.136     0.006     0.006     0.001     0.000     0.000     0.002     0.017     0.000     0.000 .00000E+00 0.000E+00 0.000E+00 0.000E+00
BIGSUB   5        0   11.37770E+04    30.200     5.400    38.771     9.498    21.808     0.000     0.217     0.000     0.231     0.002     0.005     0.001     0.001     0.000     0.001     0.014     0.000     0.000 .00000E+00 0.000E+00 0.000E+00 0.000E+00
BIGSUB   6        0   11.18250E+04    30.200     5.400    39.034     9.548    21.528     0.000     0.306     0.000     0.322     0.025     0.013     0.002     0.001     0.000     0.003     0.016     0.000     0.000 .00000E+00 0.000E+00 0.000E+00 0.000E+00
BIGSUB   7        0   11.14660E+04    30.200     5.400    39.059     9.897    20.900     0.000     1.030     0.000     1.034     0.012     0.035     0.004     0.003     0.000     0.008     0.003     0.000     0.000 .00000E+00 0.000E+00 0.000E+00 0.000E+00
BIGSUB   8        0   11.34940E+04    30.200     5.400    39.568    10.049    21.224     0.000     0.453     0.000     0.471     0.157     0.096     0.012     0.001     0.000     0.022     0.018     0.000     0.000 .00000E+00 0.000E+00 0.000E+00 0.000E+00
BIGSUB   9        0   11.47420E+04    24.100     5.400    41.873    13.934    20.500     0.000     0.000     0.000     0.022     0.000     0.000     0.000     0.000     0.000     0.000     0.022     0.000     0.000 .00000E+00 0.000E+00 0.000E+00 0.000E+00
BIGSUB  10        0   11.13380E+04    24.100     5.400    42.235    15.281    19.546     0.000     0.011     0.000     0.024     0.000     0.000     0.000     0.000     0.000     0.000     0.012     0.000     0.000 .00000E+00 0.000E+00 0.000E+00 0.000E+00
BIGSUB  11        0   11.24060E+04    39.900     0.700    37.806    12.896    29.907     0.000     3.004     0.000     3.013     0.062     0.088     0.011     0.008     0.000     0.020     0.009     0.000     0.000 .00000E+00 0.000E+00 0.000E+00 0.000E+00
BIGSUB  12        0   11.19770E+04    15.200     2.000    38.925     9.602    11.468     0.000     0.000     0.000     0.005     0.000     0.000     0.000     0.000     0.000     0.000     0.005     0.000     0.000 .00000E+00 0.000E+00 0.000E+00 0.000E+00
BIGSUB  13        0   11.16410E+04    39.900     0.700    38.057    14.857    27.963     0.000     3.016     0.000     3.021     0.045     0.077     0.009     0.009     0.000     0.017     0.005     0.000     0.000 .00000E+00 0.000E+00 0.000E+00 0.000E+00
BIGSUB  14        0   11.52740E+04    15.200     2.000    39.372     9.790    11.231     0.000     0.000     0.000     0.010     0.000     0.000     0.000     0.000     0.000     0.000     0.010     0.000     0.000 .00000E+00 0.000E+00 0.000E+00 0.000E+00
BIGSUB  15        0   11.42200E+03    39.900     0.700    38.292    14.369    29.268     0.000     2.251     0.000     2.256     0.035     0.050     0.006     0.006     0.000     0.011     0.005     0.000     0.000 .00000E+00 0.000E+00 0.000E+00 0.000E+00
BIGSUB  16        0   11.13850E+04    39.900     0.700    38.493    11.774    31.738     0.000     2.252     0.000     2.259     0.022     0.042     0.005     0.006     0.000     0.011     0.007     0.000     0.000 .00000E+00 0.000E+00 0.000E+00 0.000E+00
BIGSUB  17        0   11.17180E+04    15.200     2.000    39.831     9.872    11.058     0.000     0.000     0.000     0.003     0.000     0.000     0.000     0.000     0.000     0.000     0.003     0.000     0.000 .00000E+00 0.000E+00 0.000E+00 0.000E+00
BIGSUB  18        0   11.26090E+04    15.200     2.000    39.683     9.931    11.089     0.000     0.000     0.000     0.008     0.000     0.000     0.000     0.000     0.000     0.000     0.008     0.000     0.000 .00000E+00 0.000E+00 0.000E+00 0.000E+00
BIGSUB  19        0   11.25380E+04    15.200     2.000    40.131     9.877    11.114     0.000     0.000     0.000     0.014     0.000     0.000     0.000     0.000     0.000     0.000     0.014     0.000     0.000 .00000E+00 0.000E+00 0.000E+00 0.000E+00
BIGSUB  20        0   11.19820E+04    15.200     2.000    40.270     9.833    11.151     0.000     0.000     0.000     0.016     0.000     0.000     0.000     0.000     0.000     0.000     0.016     0.000     0.000 .00000E+00 0.000E+00 0.000E+00 0.000E+00
BIGSUB   1        0   12.12360E+04    45.100     0.000    26.069    17.159    49.598     0.000     0.221     0.000     0.278     0.007     0.012     0.001     0.001     0.000     0.003     0.057     0.000     0.000 .00000E+00 0.000E+00 0.000E+00 0.000E+00
BIGSUB   2        0   12.37400E+03    45.100     0.000    26.186    17.124    49.031     0.000     0.181     0.000     0.587     0.021     0.016     0.002     0.001     0.000     0.003     0.406     0.001     0.000 .00000E+00 0.000E+00 0.000E+00 0.000E+00
BIGSUB   3        0   12.14590E+04    45.100     0.000    26.066    17.066    49.852     0.000     0.118     0.000     0.182     0.012     0.010     0.001     0.000     0.000     0.002     0.064     0.000     0.000 .00000E+00 0.000E+00 0.000E+00 0.000E+00
BIGSUB   4        0   12.91800E+03    45.100     0.000    26.087    17.135    49.705     0.000     0.186     0.000     0.242     0.012     0.013     0.002     0.001     0.000     0.003     0.055     0.000     0.000 .00000E+00 0.000E+00 0.000E+00 0.000E+00
BIGSUB   5        0   12.37770E+04    45.100     0.000    26.277    16.968    49.295     0.000     0.358     0.000     0.401     0.007     0.015     0.002     0.001     0.000     0.003     0.042     0.000     0.000 .00000E+00 0.000E+00 0.000E+00 0.000E+00
BIGSUB   6        0   12.18250E+04    45.100     0.000    26.505    17.030    48.665     0.000     0.583     0.000     0.619     0.204     0.091     0.011     0.002     0.000     0.019     0.037     0.000     0.000 .00000E+00 0.000E+00 0.000E+00 0.000E+00
BIGSUB   7        0   12.14660E+04    45.100     0.000    26.526    17.617    43.298     0.000     4.238     0.000     4.243     0.063     0.174     0.021     0.014     0.001     0.039     0.005     0.000     0.000 .00000E+00 0.000E+00 0.000E+00 0.000E+00
BIGSUB   8        0   12.34940E+04    45.100     0.000    26.967    18.056    45.666     0.000     2.097     0.000     2.151     0.818     0.482     0.059     0.007     0.000     0.108     0.054     0.000     0.000 .00000E+00 0.000E+00 0.000E+00 0.000E+00
BIGSUB   9        0   12.47420E+04    12.900     0.000    27.949    10.692    22.693     0.000     0.000     0.000     0.023     0.000     0.000     0.000     0.000     0.000     0.000     0.023     0.000     0.000 .00000E+00 0.000E+00 0.000E+00 0.000E+00
BIGSUB  10        0   12.13380E+04    12.900     0.000    28.252    13.768    18.445     0.000     0.149     0.000     0.162     0.001     0.002     0.000     0.001     0.000     0.000     0.013     0.000     0.000 .00000E+00 0.000E+00 0.000E+00 0.000E+00
BIGSUB  11        0   12.24060E+04    40.500     0.354    25.023    17.873    49.102     0.000     2.874     0.000     2.888     0.053     0.076     0.009     0.009     0.000     0.017     0.014     0.000     0.000 .00000E+00 0.000E+00 0.000E+00 0.000E+00
BIGSUB  12        0   12.19770E+04    17.700     3.476    24.035     8.255    20.905     0.000     0.000     0.000     0.006     0.000     0.000     0.000     0.000     0.000     0.000     0.006     0.000     0.000 .00000E+00 0.000E+00 0.000E+00 0.000E+00
BIGSUB  13        0   12.16410E+04    40.500     0.354    25.231    17.349    46.046     0.000     4.408     0.000     4.414     0.059     0.107     0.013     0.013     0.000     0.024     0.006     0.000     0.000 .00000E+00 0.000E+00 0.000E+00 0.000E+00
BIGSUB  14        0   12.52740E+04    17.700     3.474    24.381     9.051    19.858     0.000     0.000     0.000     0.012     0.000     0.000     0.000     0.000     0.000     0.000     0.012     0.000     0.000 .00000E+00 0.000E+00 0.000E+00 0.000E+00
BIGSUB  15        0   12.42200E+03    40.500     0.354    25.426    17.725    48.735     0.000     2.823     0.000     2.831     0.030     0.049     0.006     0.009     0.000     0.011     0.008     0.000     0.000 .00000E+00 0.000E+00 0.000E+00 0.000E+00
BIGSUB  16        0   12.13850E+04    40.500     0.354    25.594    18.686    52.718     0.000     0.496     0.000     0.506     0.003     0.007     0.001     0.002     0.000     0.002     0.010     0.000     0.000 .00000E+00 0.000E+00 0.000E+00 0.000E+00
BIGSUB  17        0   12.17180E+04    17.700     3.472    24.736    11.123    17.566     0.000     0.003     0.000     0.006     0.000     0.000     0.000     0.000     0.000     0.000     0.003     0.000     0.000 .00000E+00 0.000E+00 0.000E+00 0.000E+00
BIGSUB  18        0   12.26090E+04    17.700     3.473    24.621     8.462    20.316     0.000     0.000     0.000     0.009     0.000     0.000     0.000     0.000     0.000     0.000     0.009     0.000     0.000 .00000E+00 0.000E+00 0.000E+00 0.000E+00
BIGSUB  19        0   12.25380E+04    17.700     3.471    24.969     9.205    19.587     0.000     0.000     0.000     0.022     0.000     0.000     0.000     0.000     0.000     0.000     0.022     0.000     0.000 .00000E+00 0.000E+00 0.000E+00 0.000E+00
BIGSUB  20        0   12.19820E+04    17.700     3.470    25.077     9.454    19.372     0.000     0.000     0.000     0.026     0.000     0.000     0.000     0.000     0.000     0.000     0.026     0.000     0.000 .00000E+00 0.000E+00 0.000E+00 0.000E+00
BIGSUB   1        0 2001.12360E+04   175.100     7.600  1387.187   181.861    49.598     0.000     0.710     0.000     1.011     0.106     0.118     0.014     0.004     0.000     0.025     0.301     0.001     0.000 .00000E+00 0.000E+00 0.000E+00 0.000E+00
BIGSUB   2        0 2001.37400E+03   175.100     7.600  1388.431   181.432    49.031     0.000     0.631     0.000     2.023     0.286     0.150     0.018     0.003     0.000     0.033     1.393     0.003     0.000 .00000E+00 0.000E+00 0.000E+00 0.000E+00
BIGSUB   3        0 2001.14590E+04   175.100     7.600  1387.160   183.557    49.852     0.000     0.494     0.000     0.926     0.172     0.099     0.012     0.002     0.000     0.022     0.432     0.001     0.000 .00000E+00 0.000E+00 0.000E+00 0.000E+00
BIGSUB   4        0 2001.91800E+03   175.100     7.600  1387.376   182.590    49.705     0.000     0.649     0.000     0.949     0.166     0.124     0.015     0.003     0.000     0.027     0.300     0.001     0.000 .00000E+00 0.000E+00 0.000E+00 0.000E+00
BIGSUB   5        0 2001.37770E+04   175.100     7.600  1389.395   181.612    49.295     0.000     1.134     0.000     1.401     0.079     0.109     0.013     0.006     0.000     0.024     0.268     0.001     0.000 .00000E+00 0.000E+00 0.000E+00 0.000E+00
BIGSUB   6        0 2001.18250E+04   175.100     7.600  1391.795   181.195    48.665     0.000     1.634     0.000     1.977     0.414     0.191     0.023     0.008     0.000     0.041     0.343     0.001     0.000 .00000E+00 0.000E+00 0.000E+00 0.000E+00
BIGSUB   7        0 2001.14660E+04   175.100     7.600  1392.018   166.057    43.298     0.000     9.943     0.000     9.996     0.465     0.918     0.111     0.043     0.002     0.206     0.053     0.000     0.000 .00000E+00 0.000E+00 0.000E+00 0.000E+00
BIGSUB   8        0 2001.34940E+04   175.100     7.600  1396.615   173.618    45.666     0.000     4.957     0.000     5.275     1.839     1.117     0.136     0.021     0.001     0.252     0.318     0.001     0.000 .00000E+00 0.000E+00 0.000E+00 0.000E+00
BIGSUB   9        0 2001.47420E+04   200.400    13.300  1264.808   221.662    22.693     0.000     1.288     0.000     1.523     0.080     0.119     0.013     0.045     0.000     0.028     0.235     0.001     0.000 .00000E+00 0.000E+00 0.000E+00 0.000E+00
BIGSUB  10        0 2001.13380E+04   200.400    13.300  1267.567   214.209    18.445     0.000     8.110     0.000     8.266     1.965     1.632     0.188     0.122     0.001     0.359     0.156     0.001     0.000 .00000E+00 0.000E+00 0.000E+00 0.000E+00
BIGSUB  11        0 2001.24060E+04   213.100    33.037  1159.323   205.568    49.102     0.000    19.756     0.000    19.886     1.449     1.654     0.199     0.139     0.002     0.371     0.130     0.000     0.000 .00000E+00 0.000E+00 0.000E+00 0.000E+00
BIGSUB  12        0 2001.19770E+04   180.000    62.616  1163.035   200.710    20.905     0.000    34.122     0.000    34.205     1.602     3.797     0.455     0.165     0.005     0.755     0.083     0.000     0.000 .00000E+00 0.000E+00 0.000E+00 0.000E+00
BIGSUB  13        0 2001.16410E+04   213.100    33.035  1161.186   199.724    46.046     0.000    23.284     0.000    23.349     1.281     1.687     0.203     0.167     0.003     0.369     0.065     0.000     0.000 .00000E+00 0.000E+00 0.000E+00 0.000E+00
BIGSUB  14        0 2001.52740E+04   180.000    62.585  1166.188   197.793    19.858     0.000    34.418     0.000    34.590     1.729     3.312     0.391     0.186     0.005     0.729     0.171     0.001     0.000 .00000E+00 0.000E+00 0.000E+00 0.000E+00
BIGSUB  15        0 2001.42200E+03   213.100    33.033  1162.915   205.162    48.735     0.000    19.181     0.000    19.258     0.949     1.313     0.158     0.141     0.003     0.291     0.077     0.000     0.000 .00000E+00 0.000E+00 0.000E+00 0.000E+00
BIGSUB  16        0 2001.13850E+04   213.100    33.032  1164.393   213.083    52.718     0.000    13.912     0.000    14.006     0.516     0.895     0.108     0.098     0.002     0.228     0.095     0.000     0.000 .00000E+00 0.000E+00 0.000E+00 0.000E+00
BIGSUB  17        0 2001.17180E+04   180.000    62.553  1169.387   184.789    17.566     0.000    40.182     0.000    40.227     1.388     3.193     0.359     0.323     0.006     0.663     0.045     0.000     0.000 .00000E+00 0.000E+00 0.000E+00 0.000E+00
BIGSUB  18        0 2001.26090E+04   180.000    62.563  1168.357   204.402    20.316     0.000    31.651     0.000    31.789     0.785     2.132     0.255     0.143     0.006     0.567     0.138     0.000     0.000 .00000E+00 0.000E+00 0.000E+00 0.000E+00
BIGSUB  19        0 2001.25380E+04   180.000    62.532  1171.455   201.679    19.587     0.000    31.722     0.000    31.964     2.135     2.993     0.360     0.169     0.004     0.681     0.242     0.001     0.000 .00000E+00 0.000E+00 0.000E+00 0.000E+00
BIGSUB  20        0 2001.19820E+04   180.000    62.522  1172.410   200.829    19.372     0.000    31.640     0.000    31.920     2.331     3.264     0.392     0.178     0.004     0.759     0.279     0.001     0.000 .00000E+00 0.000E+00 0.000E+00 0.000E+00
BIGSUB   1        0 12.0.12360E+04   273.842    46.598  1301.699   243.574    49.598     0.885    25.942     0.188    26.532     4.383     4.608     0.547     0.121     0.004     1.073     0.402     0.002     0.001 .00000E+00 0.000E+00 0.000E+00 0.000E+00
BIGSUB   2        0 12.0.37400E+03   273.842    46.595  1302.846   241.738    49.031     0.625    26.728     0.098    28.667    12.699     6.567     0.776     0.123     0.003     1.574     1.842     0.007     0.000 .00000E+00 0.000E+00 0.000E+00 0.000E+00
BIGSUB   3        0 12.0.14590E+04   273.842    46.598  1301.675   245.967    49.852     0.458    24.004     0.091    24.681     7.254     5.035     0.596     0.109     0.003     1.290     0.586     0.003     0.000 .00000E+00 0.000E+00 0.000E+00 0.000E+00
BIGSUB   4        0 12.0.91800E+03   273.842    46.597  1301.874   244.605    49.705     0.713    25.395     0.140    25.935     5.963     4.765     0.565     0.116     0.003     1.140     0.401     0.002     0.001 .00000E+00 0.000E+00 0.000E+00 0.000E+00
BIGSUB   5        0 12.0.37770E+04   273.842    46.592  1303.735   238.341    49.295     0.450    30.352     0.109    30.815     4.154     5.571     0.662     0.147     0.004     1.240     0.354     0.002     0.000 .00000E+00 0.000E+00 0.000E+00 0.000E+00
BIGSUB   6        0 12.0.18250E+04   273.842    46.586  1305.946   235.384    48.665     0.000    32.945     0.007    33.410     6.190     6.066     0.726     0.150     0.004     1.386     0.459     0.002     0.000 .00000E+00 0.000E+00 0.000E+00 0.000E+00
BIGSUB   7        0 12.0.14660E+04   273.842    46.586  1306.152   213.325    43.298     0.241    53.277     0.123    53.464     3.719     6.638     0.788     0.300     0.008     1.465     0.063     0.000     0.001 .00000E+00 0.000E+00 0.000E+00 0.000E+00
BIGSUB   8        0 12.0.34940E+04   273.842    46.574  1310.320   221.788    45.666     0.806    46.467     0.221    47.096    14.306     9.205     1.089     0.245     0.004     1.970     0.408     0.002     0.001 .00000E+00 0.000E+00 0.000E+00 0.000E+00
BIGSUB   9        0 12.0.47420E+04   283.017    46.042  1206.171   248.289    22.693     0.167    31.351     0.000    31.623     2.561     4.300     0.484     0.233     0.006     1.023     0.273     0.003     0.000 .00000E+00 0.000E+00 0.000E+00 0.000E+00
BIGSUB  10        0 12.0.13380E+04   283.017    46.034  1208.742   226.805    18.445     0.459    53.125     0.069    53.361    11.468    10.679     1.230     0.383     0.007     2.316     0.168     0.002     0.008 .00000E+00 0.000E+00 0.000E+00 0.000E+00
BIGSUB  11        0 12.0.24060E+04   400.261    99.356  1092.950   278.154    49.102     0.218   115.447     0.000   115.641     7.394     8.752     0.993     0.683     0.013     1.849     0.194     0.001     0.000 .00000E+00 0.000E+00 0.000E+00 0.000E+00
BIGSUB  12        0 12.0.19770E+04   347.875    81.081  1113.007   260.884    20.905     0.000    84.287     0.000    84.412     2.838     7.946     0.909     0.495     0.014     1.509     0.125     0.001     0.000 .00000E+00 0.000E+00 0.000E+00 0.000E+00
BIGSUB  13        0 12.0.16410E+04   400.261    99.347  1094.717   260.722    46.046     3.353   129.473     1.352   130.911     7.058     9.277     1.049     0.818     0.014     1.913     0.086     0.001     0.023 .00000E+00 0.000E+00 0.000E+00 0.000E+00
BIGSUB  14        0 12.0.52740E+04   347.875    81.045  1115.920   263.887    19.858     0.000    79.809     0.028    80.071     3.447     7.257     0.819     0.489     0.013     1.466     0.234     0.002     0.000 .00000E+00 0.000E+00 0.000E+00 0.000E+00
BIGSUB  15        0 12.0.42200E+03   400.261    99.339  1096.356   272.706    48.735     4.842   117.087     2.081   119.282     5.182     7.207     0.825     0.702     0.015     1.523     0.114     0.001     0.036 .00000E+00 0.000E+00 0.000E+00 0.000E+00
BIGSUB  16        0 12.0.13850E+04   400.261    99.332  1097.758   304.320    52.718     0.000    89.888     0.000    90.034     2.318     4.507     0.519     0.487     0.014     1.081     0.147     0.001     0.000 .00000E+00 0.000E+00 0.000E+00 0.000E+00
BIGSUB  17        0 12.0.17180E+04   347.875    81.028  1118.941   231.013    17.566     0.000   111.840     0.040   111.935     3.506     8.573     0.966     0.819     0.018     1.786     0.056     0.001     0.000 .00000E+00 0.000E+00 0.000E+00 0.000E+00
BIGSUB  18        0 12.0.26090E+04   347.875    81.033  1117.968   283.555    20.316     0.000    61.706     0.000    61.906     1.036     3.183     0.365     0.312     0.013     0.808     0.200     0.002     0.000 .00000E+00 0.000E+00 0.000E+00 0.000E+00
BIGSUB  19        0 12.0.25380E+04   347.875    81.016  1120.895   275.790    19.587     2.421    68.768     0.305    69.459     4.222     6.096     0.691     0.369     0.011     1.285     0.386     0.003     0.003 .00000E+00 0.000E+00 0.000E+00 0.000E+00
BIGSUB  20        0 12.0.19820E+04   347.875    81.011  1121.796   276.397    19.372     3.310    67.078     0.445    67.977     4.462     6.676     0.755     0.373     0.010     1.409     0.453     0.004     0.005 .00000E+00 0.000E+00 0.000E+00 0.000E+00
