1
    SWAT Sep 7    VER 2018/Rev 670                                                                       0/ 0/   0      0: 0: 0

    General Input/Output section (file.cio):                                        
    11/27/2018 12:00:00 AM ARCGIS-SWAT interface AV                                 
                                                                                    
         Number of years in run:   13
         Area of watershed:       21.963 km2
         Random number generator cycles: 0, use default numbers

         Initial random number seed: wet/dry day prob        748932582
         Initial random number seed: radiation              1948832765
         Initial random number seed: precipitation           857034417
         Initial random number seed: 0.5 hr rainfall          67377721
         Initial random number seed: wind speed              366304404
         Initial random number seed: irrigation             1094585182
         Initial random number seed: relative humidity      1767585417
         Initial random number seed: max temperature         608439319
         Initial random number seed: min temperature         592757081

         Precipitation data used in run:
          Multiple gages read for watershed
             Daily rainfall data used

         Temperature data used in run:
          Multiple gages read for watershed

         PET method used: Penman-Monteith

         Rainfall/Runoff/Routing Option:
          Daily rainfall data
          Runoff estimated with curve number method
          Daily stream routing
           Variable Storage routing method
           Channel dimensions remain constant
           Subbasin algae/CBOD loadings not modeled
           In-stream nutrient transformations modeled using QUAL2E equations

         Subbasin Input Summary:
          Sub Latitude  Elev(m) #HRUs Ponds Elevbnds Wetlnd
            1    31.73   131.45    41                   
            2    31.73   129.38    46                   
            3    31.73   120.67    47                   

         HRU Input Summary Table 1:
          Sub   HRU   Area(ha) Slope SlpLgth(m) Ovrlnd_N CondII_CN TimeConc(hr) ESCO EPCO
            1      1      18.54 0.030      91.46    0.140     77.00        0.765 0.95 1.00
            1      2       9.36 0.037      91.46    0.140     77.00        0.707 0.95 1.00
            1      3     346.77 0.027      91.46    0.140     77.00        1.150 0.95 1.00
            1      4      10.35 0.042      91.46    0.140     83.00        0.683 0.95 1.00
            1      5       2.25 0.025      91.46    0.140     83.00        0.781 0.95 1.00
            1      6      15.66 0.029      91.46    0.140     87.00        0.769 0.95 1.00
            1      7       4.77 0.022      91.46    0.150     69.00        0.850 0.95 1.00
            1      8       0.99 0.020      91.46    0.150     69.00        0.868 0.95 1.00
            1      9       2.25 0.049      91.46    0.150     69.00        0.666 0.95 1.00
            1     10      26.37 0.031      91.46    0.150     69.00        0.800 0.95 1.00
            1     11       2.25 0.048      91.46    0.150     79.00        0.670 0.95 1.00
            1     12       0.99 0.027      91.46    0.150     79.00        0.793 0.95 1.00
            1     13       4.86 0.026      91.46    0.150     84.00        0.809 0.95 1.00
            1     14      14.76 0.028      91.46    0.100     55.00        0.638 0.95 1.00
            1     15      11.79 0.018     121.95    0.100     55.00        0.852 0.95 1.00
            1     16       6.48 0.041      91.46    0.100     55.00        0.559 0.95 1.00
            1     17     129.42 0.035      91.46    0.100     55.00        0.739 0.95 1.00
            1     18       7.20 0.046      91.46    0.100     70.00        0.542 0.95 1.00
            1     19       5.40 0.030      91.46    0.100     70.00        0.611 0.95 1.00
            1     20      44.46 0.027      91.46    0.100     77.00        0.685 0.95 1.00
            1     21       6.57 0.027      91.46    0.100     66.00        0.632 0.95 1.00
            1     22       5.94 0.021      91.46    0.100     66.00        0.680 0.95 1.00
            1     23      11.88 0.036      91.46    0.100     66.00        0.589 0.95 1.00
            1     24      43.02 0.039      91.46    0.100     66.00        0.618 0.95 1.00
            1     25       9.54 0.052      60.98    0.100     77.00        0.416 0.95 1.00
            1     26       2.16 0.031      91.46    0.100     77.00        0.599 0.95 1.00
            1     27      18.45 0.029      91.46    0.100     83.00        0.637 0.95 1.00
            1     28       1.71 0.019     121.95    0.050     66.00        0.544 0.95 1.00
            1     29      28.08 0.016     121.95    0.050     66.00        0.612 0.95 1.00
            1     30       2.70 0.023      91.46    0.050     66.00        0.435 0.95 1.00
            1     31      11.34 0.038      91.46    0.050     66.00        0.389 0.95 1.00
            1     32       0.72 0.025      91.46    0.050     77.00        0.420 0.95 1.00
            1     33      27.72 0.025      91.46    0.050     83.00        0.462 0.95 1.00
            1     34      28.08 0.023      91.46    0.010     92.00        0.207 0.95 1.00
            1     35       0.27 0.040      91.46    0.100     63.29        0.552 0.95 1.00
            1     36       0.27 0.015     121.95    0.100     63.29        0.880 0.95 1.00
            1     37       0.45 0.038      91.46    0.100     63.29        0.561 0.95 1.00
            1     38      11.52 0.028      91.46    0.100     63.29        0.633 0.95 1.00
            1     39       0.72 0.044      91.46    0.100     74.86        0.537 0.95 1.00
            1     40       0.09 0.023      91.46    0.100     74.86        0.651 0.95 1.00
            1     41       2.07 0.028      91.46    0.100     81.09        0.618 0.95 1.00
            2     42       2.52 0.038      91.46    0.140     67.00        0.692 0.95 1.00
            2     43      22.95 0.031      91.46    0.140     77.00        0.779 0.95 1.00
            2     44       0.18 0.022      91.46    0.140     77.00        0.808 0.95 1.00
            2     45      11.79 0.023      91.46    0.140     77.00        0.825 0.95 1.00
            2     46     140.49 0.028      91.46    0.140     77.00        1.000 0.95 1.00
            2     47       2.61 0.049      91.46    0.140     83.00        0.642 0.95 1.00
            2     48       8.82 0.032      91.46    0.140     83.00        0.743 0.95 1.00
            2     49       5.04 0.027      91.46    0.140     87.00        0.772 0.95 1.00
            2     50       8.28 0.035      91.46    0.150     49.00        0.753 0.95 1.00
            2     51       7.47 0.024      91.46    0.150     69.00        0.838 0.95 1.00
            2     52       1.26 0.017     121.95    0.150     69.00        1.084 0.95 1.00
            2     53       1.98 0.020      91.46    0.150     69.00        0.871 0.95 1.00
            2     54      35.37 0.037      91.46    0.150     69.00        0.794 0.95 1.00
            2     55       1.62 0.038      91.46    0.150     79.00        0.719 0.95 1.00
            2     56       2.43 0.025      91.46    0.150     79.00        0.816 0.95 1.00
            2     57       5.40 0.025      91.46    0.150     84.00        0.824 0.95 1.00
            2     58       2.61 0.031      91.46    0.100     35.00        0.602 0.95 1.00
            2     59      21.15 0.037      91.46    0.100     55.00        0.612 0.95 1.00
            2     60       2.88 0.022      91.46    0.100     55.00        0.668 0.95 1.00
            2     61       9.63 0.028      91.46    0.100     55.00        0.637 0.95 1.00
            2     62      92.61 0.035      91.46    0.100     55.00        0.747 0.95 1.00
            2     63       3.87 0.048      91.46    0.100     70.00        0.533 0.95 1.00
            2     64       7.02 0.034      91.46    0.100     70.00        0.597 0.95 1.00
            2     65      27.45 0.027      91.46    0.100     77.00        0.680 0.95 1.00
            2     66       5.58 0.040      91.46    0.100     66.00        0.566 0.95 1.00
            2     67       1.80 0.009     121.95    0.100     66.00        1.030 0.95 1.00
            2     68       2.88 0.028      91.46    0.100     66.00        0.622 0.95 1.00
            2     69      19.08 0.038      91.46    0.100     66.00        0.603 0.95 1.00
            2     70       1.80 0.034      91.46    0.100     77.00        0.584 0.95 1.00
            2     71       1.35 0.026      91.46    0.100     77.00        0.631 0.95 1.00
            2     72      17.55 0.028      91.46    0.100     83.00        0.654 0.95 1.00
            2     73       0.36 0.024      91.46    0.050     45.00        0.425 0.95 1.00
            2     74       0.36 0.052      60.98    0.050     66.00        0.265 0.95 1.00
            2     75       8.91 0.021      91.46    0.050     66.00        0.463 0.95 1.00
            2     76       2.25 0.018     121.95    0.050     66.00        0.556 0.95 1.00
            2     77       6.84 0.041      91.46    0.050     66.00        0.379 0.95 1.00
            2     78       3.42 0.046      91.46    0.050     77.00        0.358 0.95 1.00
            2     79       1.26 0.033      91.46    0.050     77.00        0.389 0.95 1.00
            2     80      11.79 0.021      91.46    0.050     83.00        0.470 0.95 1.00
            2     81      16.20 0.026      91.46    0.010     92.00        0.195 0.95 1.00
            2     82       0.27 0.018     121.95    0.100     41.93        0.833 0.95 1.00
            2     83       0.63 0.056      60.98    0.100     63.29        0.393 0.95 1.00
            2     84       0.36 0.038      91.46    0.100     63.29        0.561 0.95 1.00
            2     85       3.15 0.033      91.46    0.100     63.29        0.593 0.95 1.00
            2     86       2.79 0.061      60.98    0.100     74.86        0.389 0.95 1.00
            2     87       0.36 0.026      91.46    0.100     81.09        0.628 0.95 1.00
            3     88       0.09 0.021      91.46    0.140     67.00        0.818 0.95 1.00
            3     89       9.90 0.028      91.46    0.140     77.00        0.771 0.95 1.00
            3     90       0.18 0.025      91.46    0.140     77.00        0.777 0.95 1.00
            3     91      12.78 0.032      91.46    0.140     77.00        0.747 0.95 1.00
            3     92     223.83 0.033      91.46    0.140     77.00        1.029 0.95 1.00
            3     93       5.58 0.041      91.46    0.140     83.00        0.682 0.95 1.00
            3     94       5.58 0.023      91.46    0.140     83.00        0.809 0.95 1.00
            3     95      10.35 0.037      91.46    0.140     87.00        0.712 0.95 1.00
            3     96       0.18 0.021      91.46    0.150     49.00        0.853 0.95 1.00
            3     97       4.86 0.037      91.46    0.150     69.00        0.730 0.95 1.00
            3     98       5.94 0.017     121.95    0.150     69.00        1.093 0.95 1.00
            3     99      17.55 0.035      91.46    0.150     69.00        0.765 0.95 1.00
            3    100      20.79 0.035      91.46    0.150     69.00        0.771 0.95 1.00
            3    101      25.02 0.050      60.98    0.150     79.00        0.562 0.95 1.00
            3    102      10.80 0.023      91.46    0.150     79.00        0.852 0.95 1.00
            3    103      15.21 0.029      91.46    0.150     84.00        0.804 0.95 1.00
            3    104       0.63 0.021      91.46    0.100     35.00        0.670 0.95 1.00
            3    105       6.93 0.041      91.46    0.100     55.00        0.562 0.95 1.00
            3    106      10.35 0.021      91.46    0.100     55.00        0.690 0.95 1.00
            3    107      40.59 0.043      91.46    0.100     55.00        0.610 0.95 1.00
            3    108     120.69 0.036      91.46    0.100     55.00        0.752 0.95 1.00
            3    109      24.84 0.048      91.46    0.100     70.00        0.568 0.95 1.00
            3    110       4.14 0.027      91.46    0.100     70.00        0.630 0.95 1.00
            3    111      36.99 0.033      91.46    0.100     77.00        0.649 0.95 1.00
            3    112       0.72 0.018     121.95    0.100     45.00        0.834 0.95 1.00
            3    113       2.97 0.020      91.46    0.100     66.00        0.686 0.95 1.00
            3    114       7.11 0.018     121.95    0.100     66.00        0.848 0.95 1.00
            3    115       9.99 0.037      91.46    0.100     66.00        0.585 0.95 1.00
            3    116      15.93 0.036      91.46    0.100     66.00        0.600 0.95 1.00
            3    117      10.26 0.046      91.46    0.100     77.00        0.550 0.95 1.00
            3    118       2.43 0.021      91.46    0.100     77.00        0.675 0.95 1.00
            3    119      22.59 0.028      91.46    0.100     83.00        0.656 0.95 1.00
            3    120       0.18 0.034      91.46    0.050     66.00        0.382 0.95 1.00
            3    121      34.29 0.019     121.95    0.050     66.00        0.601 0.95 1.00
            3    122       3.33 0.037      91.46    0.050     66.00        0.380 0.95 1.00
            3    123       7.29 0.041      91.46    0.050     66.00        0.377 0.95 1.00
            3    124      12.51 0.036      91.46    0.050     77.00        0.400 0.95 1.00
            3    125       3.15 0.018     121.95    0.050     77.00        0.557 0.95 1.00
            3    126      23.76 0.024      91.46    0.050     83.00        0.468 0.95 1.00
            3    127       8.19 0.027      91.46    0.010     92.00        0.173 0.95 1.00
            3    128       0.09 0.036      91.46    0.100     63.29        0.569 0.95 1.00
            3    129       0.18 0.018     121.95    0.100     63.29        0.833 0.95 1.00
            3    130       0.63 0.027      91.46    0.100     63.29        0.622 0.95 1.00
            3    131       3.15 0.035      91.46    0.100     63.29        0.581 0.95 1.00
            3    132       0.27 0.027      91.46    0.100     74.86        0.621 0.95 1.00
            3    133       0.09 0.031      91.46    0.100     74.86        0.595 0.95 1.00
            3    134       0.72 0.026      91.46    0.100     81.09        0.629 0.95 1.00

         HRU CN Input Summary Table:
          Sub   HRU   Area(ha)  LULC      Soil    CN1    CN2    CN3  Wilting Point (mm H2O)  Field Capacity (mm H2O)  Saturation (mm H2O)
            1      1      18.54  COTS  LREW03     59.3   77.0   89.9                   216.2                    173.2                436.6
            1      2       9.36  COTS  LREW05     59.3   77.0   89.9                   182.1                    167.6                496.6
            1      3     346.77  CORN  LREW06     59.3   77.0   89.9                   274.3                    192.2                377.4
            1      4      10.35  COTS  LREW08     67.0   83.0   93.1                   278.8                    203.9                431.5
            1      5       2.25  CORN  LREW09     67.0   83.0   93.1                   155.6                    136.4                520.2
            1      6      15.66  CORN  LREW10     73.0   87.0   95.0                   197.3                    159.8                515.2
            1      7       4.77  PAST  LREW03     50.1   69.0   85.0                   216.2                    173.2                436.6
            1      8       0.99  PAST  LREW04     50.1   69.0   85.0                   376.9                    285.9                402.9
            1      9       2.25  PAST  LREW05     50.1   69.0   85.0                   182.1                    167.6                496.6
            1     10      26.37  PAST  LREW06     50.1   69.0   85.0                   274.3                    192.2                377.4
            1     11       2.25  PAST  LREW08     61.7   79.0   91.0                   278.8                    203.9                431.5
            1     12       0.99  PAST  LREW09     61.7   79.0   91.0                   155.6                    136.4                520.2
            1     13       4.86  PAST  LREW10     68.4   84.0   93.5                   197.3                    159.8                515.2
            1     14      14.76  FRSE  LREW03     35.3   55.0   74.5                   216.2                    173.2                436.6
            1     15      11.79  FRSE  LREW04     35.3   55.0   74.5                   376.9                    285.9                402.9
            1     16       6.48  FRSE  LREW05     35.3   55.0   74.5                   182.1                    167.6                496.6
            1     17     129.42  FRSE  LREW06     35.3   55.0   74.5                   274.3                    192.2                377.4
            1     18       7.20  FRSE  LREW08     51.2   70.0   85.7                   278.8                    203.9                431.5
            1     19       5.40  FRSE  LREW09     51.2   70.0   85.7                   155.6                    136.4                520.2
            1     20      44.46  FRSE  LREW10     59.3   77.0   89.9                   197.3                    159.8                515.2
            1     21       6.57  FRSD  LREW03     46.8   66.0   83.0                   216.2                    173.2                436.6
            1     22       5.94  FRSD  LREW04     46.8   66.0   83.0                   376.9                    285.9                402.9
            1     23      11.88  FRSD  LREW05     46.8   66.0   83.0                   182.1                    167.6                496.6
            1     24      43.02  FRSD  LREW06     46.8   66.0   83.0                   274.3                    192.2                377.4
            1     25       9.54  FRSD  LREW08     59.3   77.0   89.9                   278.8                    203.9                431.5
            1     26       2.16  FRSD  LREW09     59.3   77.0   89.9                   155.6                    136.4                520.2
            1     27      18.45  FRSD  LREW10     67.0   83.0   93.1                   197.3                    159.8                515.2
            1     28       1.71  WETF  LREW03     46.8   66.0   83.0                   216.2                    173.2                436.6
            1     29      28.08  WETF  LREW04     46.8   66.0   83.0                   376.9                    285.9                402.9
            1     30       2.70  WETF  LREW05     46.8   66.0   83.0                   182.1                    167.6                496.6
            1     31      11.34  WETF  LREW06     46.8   66.0   83.0                   274.3                    192.2                377.4
            1     32       0.72  WETF  LREW09     59.3   77.0   89.9                   155.6                    136.4                520.2
            1     33      27.72  WETF  LREW10     67.0   83.0   93.1                   197.3                    159.8                515.2
            1     34      28.08  WATR  LREW12     81.7   92.0   97.1                     0.1                      0.3                 12.8
            1     35       0.27  BERM  LREW03     43.9   63.3   81.0                   216.2                    173.2                436.6
            1     36       0.27  BERM  LREW04     43.9   63.3   81.0                   376.9                    285.9                402.9
            1     37       0.45  BERM  LREW05     43.9   63.3   81.0                   182.1                    167.6                496.6
            1     38      11.52  BERM  LREW06     43.9   63.3   81.0                   274.3                    192.2                377.4
            1     39       0.72  BERM  LREW08     56.7   74.9   88.7                   278.8                    203.9                431.5
            1     40       0.09  BERM  LREW09     56.7   74.9   88.7                   155.6                    136.4                520.2
            1     41       2.07  BERM  LREW10     64.4   81.1   92.1                   197.3                    159.8                515.2
            2     42       2.52  COTS  LREW02     47.9   67.0   83.7                    59.5                    138.4                865.8
            2     43      22.95  CORN  LREW03     59.3   77.0   89.9                   216.2                    173.2                436.6
            2     44       0.18  CORN  LREW04     59.3   77.0   89.9                   376.9                    285.9                402.9
            2     45      11.79  CORN  LREW05     59.3   77.0   89.9                   182.1                    167.6                496.6
            2     46     140.49  CORN  LREW06     59.3   77.0   89.9                   274.3                    192.2                377.4
            2     47       2.61  CORN  LREW08     67.0   83.0   93.1                   278.8                    203.9                431.5
            2     48       8.82  COTS  LREW09     67.0   83.0   93.1                   155.6                    136.4                520.2
            2     49       5.04  PNUT  LREW10     73.0   87.0   95.0                   197.3                    159.8                515.2
            2     50       8.28  PAST  LREW02     29.2   49.0   69.1                    59.5                    138.4                865.8
            2     51       7.47  PAST  LREW03     50.1   69.0   85.0                   216.2                    173.2                436.6
            2     52       1.26  PAST  LREW04     50.1   69.0   85.0                   376.9                    285.9                402.9
            2     53       1.98  PAST  LREW05     50.1   69.0   85.0                   182.1                    167.6                496.6
            2     54      35.37  PAST  LREW06     50.1   69.0   85.0                   274.3                    192.2                377.4
            2     55       1.62  PAST  LREW08     61.7   79.0   91.0                   278.8                    203.9                431.5
            2     56       2.43  PAST  LREW09     61.7   79.0   91.0                   155.6                    136.4                520.2
            2     57       5.40  PAST  LREW10     68.4   84.0   93.5                   197.3                    159.8                515.2
            2     58       2.61  FRSE  LREW02     15.1   35.0   54.2                    59.5                    138.4                865.8
            2     59      21.15  FRSE  LREW03     35.3   55.0   74.5                   216.2                    173.2                436.6
            2     60       2.88  FRSE  LREW04     35.3   55.0   74.5                   376.9                    285.9                402.9
            2     61       9.63  FRSE  LREW05     35.3   55.0   74.5                   182.1                    167.6                496.6
            2     62      92.61  FRSE  LREW06     35.3   55.0   74.5                   274.3                    192.2                377.4
            2     63       3.87  FRSE  LREW08     51.2   70.0   85.7                   278.8                    203.9                431.5
            2     64       7.02  FRSE  LREW09     51.2   70.0   85.7                   155.6                    136.4                520.2
            2     65      27.45  FRSE  LREW10     59.3   77.0   89.9                   197.3                    159.8                515.2
            2     66       5.58  FRSD  LREW03     46.8   66.0   83.0                   216.2                    173.2                436.6
            2     67       1.80  FRSD  LREW04     46.8   66.0   83.0                   376.9                    285.9                402.9
            2     68       2.88  FRSD  LREW05     46.8   66.0   83.0                   182.1                    167.6                496.6
            2     69      19.08  FRSD  LREW06     46.8   66.0   83.0                   274.3                    192.2                377.4
            2     70       1.80  FRSD  LREW08     59.3   77.0   89.9                   278.8                    203.9                431.5
            2     71       1.35  FRSD  LREW09     59.3   77.0   89.9                   155.6                    136.4                520.2
            2     72      17.55  FRSD  LREW10     67.0   83.0   93.1                   197.3                    159.8                515.2
            2     73       0.36  WETF  LREW02     25.1   45.0   65.2                    59.5                    138.4                865.8
            2     74       0.36  WETF  LREW03     46.8   66.0   83.0                   216.2                    173.2                436.6
            2     75       8.91  WETF  LREW04     46.8   66.0   83.0                   376.9                    285.9                402.9
            2     76       2.25  WETF  LREW05     46.8   66.0   83.0                   182.1                    167.6                496.6
            2     77       6.84  WETF  LREW06     46.8   66.0   83.0                   274.3                    192.2                377.4
            2     78       3.42  WETF  LREW08     59.3   77.0   89.9                   278.8                    203.9                431.5
            2     79       1.26  WETF  LREW09     59.3   77.0   89.9                   155.6                    136.4                520.2
            2     80      11.79  WETF  LREW10     67.0   83.0   93.1                   197.3                    159.8                515.2
            2     81      16.20  WATR  LREW12     81.7   92.0   97.1                     0.1                      0.3                 12.8
            2     82       0.27  BERM  LREW02     22.0   41.9   62.0                    59.5                    138.4                865.8
            2     83       0.63  BERM  LREW03     43.9   63.3   81.0                   216.2                    173.2                436.6
            2     84       0.36  BERM  LREW04     43.9   63.3   81.0                   376.9                    285.9                402.9
            2     85       3.15  BERM  LREW06     43.9   63.3   81.0                   274.3                    192.2                377.4
            2     86       2.79  BERM  LREW08     56.7   74.9   88.7                   278.8                    203.9                431.5
            2     87       0.36  BERM  LREW10     64.4   81.1   92.1                   197.3                    159.8                515.2
            3     88       0.09  COTS  LREW02     47.9   67.0   83.7                    59.5                    138.4                865.8
            3     89       9.90  COTS  LREW03     59.3   77.0   89.9                   216.2                    173.2                436.6
            3     90       0.18  COTS  LREW04     59.3   77.0   89.9                   376.9                    285.9                402.9
            3     91      12.78  CORN  LREW05     59.3   77.0   89.9                   182.1                    167.6                496.6
            3     92     223.83  COTS  LREW06     59.3   77.0   89.9                   274.3                    192.2                377.4
            3     93       5.58  COTS  LREW08     67.0   83.0   93.1                   278.8                    203.9                431.5
            3     94       5.58  COTS  LREW09     67.0   83.0   93.1                   155.6                    136.4                520.2
            3     95      10.35  COTS  LREW10     73.0   87.0   95.0                   197.3                    159.8                515.2
            3     96       0.18  PAST  LREW02     29.2   49.0   69.1                    59.5                    138.4                865.8
            3     97       4.86  PAST  LREW03     50.1   69.0   85.0                   216.2                    173.2                436.6
            3     98       5.94  PAST  LREW04     50.1   69.0   85.0                   376.9                    285.9                402.9
            3     99      17.55  PAST  LREW05     50.1   69.0   85.0                   182.1                    167.6                496.6
            3    100      20.79  PAST  LREW06     50.1   69.0   85.0                   274.3                    192.2                377.4
            3    101      25.02  PAST  LREW08     61.7   79.0   91.0                   278.8                    203.9                431.5
            3    102      10.80  PAST  LREW09     61.7   79.0   91.0                   155.6                    136.4                520.2
            3    103      15.21  PAST  LREW10     68.4   84.0   93.5                   197.3                    159.8                515.2
            3    104       0.63  FRSE  LREW02     15.1   35.0   54.2                    59.5                    138.4                865.8
            3    105       6.93  FRSE  LREW03     35.3   55.0   74.5                   216.2                    173.2                436.6
            3    106      10.35  FRSE  LREW04     35.3   55.0   74.5                   376.9                    285.9                402.9
            3    107      40.59  FRSE  LREW05     35.3   55.0   74.5                   182.1                    167.6                496.6
            3    108     120.69  FRSE  LREW06     35.3   55.0   74.5                   274.3                    192.2                377.4
            3    109      24.84  FRSE  LREW08     51.2   70.0   85.7                   278.8                    203.9                431.5
            3    110       4.14  FRSE  LREW09     51.2   70.0   85.7                   155.6                    136.4                520.2
            3    111      36.99  FRSE  LREW10     59.3   77.0   89.9                   197.3                    159.8                515.2
            3    112       0.72  FRSD  LREW02     25.1   45.0   65.2                    59.5                    138.4                865.8
            3    113       2.97  FRSD  LREW03     46.8   66.0   83.0                   216.2                    173.2                436.6
            3    114       7.11  FRSD  LREW04     46.8   66.0   83.0                   376.9                    285.9                402.9
            3    115       9.99  FRSD  LREW05     46.8   66.0   83.0                   182.1                    167.6                496.6
            3    116      15.93  FRSD  LREW06     46.8   66.0   83.0                   274.3                    192.2                377.4
            3    117      10.26  FRSD  LREW08     59.3   77.0   89.9                   278.8                    203.9                431.5
            3    118       2.43  FRSD  LREW09     59.3   77.0   89.9                   155.6                    136.4                520.2
            3    119      22.59  FRSD  LREW10     67.0   83.0   93.1                   197.3                    159.8                515.2
            3    120       0.18  WETF  LREW03     46.8   66.0   83.0                   216.2                    173.2                436.6
            3    121      34.29  WETF  LREW04     46.8   66.0   83.0                   376.9                    285.9                402.9
            3    122       3.33  WETF  LREW05     46.8   66.0   83.0                   182.1                    167.6                496.6
            3    123       7.29  WETF  LREW06     46.8   66.0   83.0                   274.3                    192.2                377.4
            3    124      12.51  WETF  LREW08     59.3   77.0   89.9                   278.8                    203.9                431.5
            3    125       3.15  WETF  LREW09     59.3   77.0   89.9                   155.6                    136.4                520.2
            3    126      23.76  WETF  LREW10     67.0   83.0   93.1                   197.3                    159.8                515.2
            3    127       8.19  WATR  LREW12     81.7   92.0   97.1                     0.1                      0.3                 12.8
            3    128       0.09  BERM  LREW03     43.9   63.3   81.0                   216.2                    173.2                436.6
            3    129       0.18  BERM  LREW04     43.9   63.3   81.0                   376.9                    285.9                402.9
            3    130       0.63  BERM  LREW05     43.9   63.3   81.0                   182.1                    167.6                496.6
            3    131       3.15  BERM  LREW06     43.9   63.3   81.0                   274.3                    192.2                377.4
            3    132       0.27  BERM  LREW08     56.7   74.9   88.7                   278.8                    203.9                431.5
            3    133       0.09  BERM  LREW09     56.7   74.9   88.7                   155.6                    136.4                520.2
            3    134       0.72  BERM  LREW10     64.4   81.1   92.1                   197.3                    159.8                515.2

         HRU Input Summary Table 2:
          Sub   HRU   Area(ha)         SoilName Hydgrp MaxRtDpth(mm) Albedo USLE_K USLE_P USLE_LS ProfileAWC(mm) IniSoilH2O(mm)
            1      1      18.54 LREW03             B          1520.00   0.30   0.15   1.00    0.46    173.200        111.055
            1      2       9.36 LREW05             B          1650.00   0.30   0.15   1.00    0.60    167.600        107.464
            1      3     346.77 LREW06             B          1650.00   0.30   0.15   1.00    0.40    192.200        123.237
            1      4      10.35 LREW08             C          1650.00   0.30   0.24   1.00    0.72    203.900        130.739
            1      5       2.25 LREW09             C          1650.00   0.23   0.10   1.00    0.36    136.400         87.459
            1      6      15.66 LREW10             D          1780.00   0.16   0.10   1.00    0.44    159.800        102.463
            1      7       4.77 LREW03             B          1520.00   0.30   0.15   1.00    0.31    173.200        111.055
            1      8       0.99 LREW04             B          1930.00   0.30   0.28   1.00    0.28    285.900        183.317
            1      9       2.25 LREW05             B          1650.00   0.30   0.15   1.00    0.90    167.600        107.464
            1     10      26.37 LREW06             B          1650.00   0.30   0.15   1.00    0.48    192.200        123.237
            1     11       2.25 LREW08             C          1650.00   0.30   0.24   1.00    0.87    203.900        130.739
            1     12       0.99 LREW09             C          1650.00   0.23   0.10   1.00    0.40    136.400         87.459
            1     13       4.86 LREW10             D          1780.00   0.16   0.10   1.00    0.38    159.800        102.463
            1     14      14.76 LREW03             B          1520.00   0.30   0.15   1.00    0.42    173.200        111.055
            1     15      11.79 LREW04             B          1930.00   0.30   0.28   1.00    0.27    285.900        183.317
            1     16       6.48 LREW05             B          1650.00   0.30   0.15   1.00    0.70    167.600        107.464
            1     17     129.42 LREW06             B          1650.00   0.30   0.15   1.00    0.56    192.200        123.237
            1     18       7.20 LREW08             C          1650.00   0.30   0.24   1.00    0.82    203.900        130.739
            1     19       5.40 LREW09             C          1650.00   0.23   0.10   1.00    0.46    136.400         87.459
            1     20      44.46 LREW10             D          1780.00   0.16   0.10   1.00    0.40    159.800        102.463
            1     21       6.57 LREW03             B          1520.00   0.30   0.15   1.00    0.40    173.200        111.055
            1     22       5.94 LREW04             B          1930.00   0.30   0.28   1.00    0.30    285.900        183.317
            1     23      11.88 LREW05             B          1650.00   0.30   0.15   1.00    0.58    167.600        107.464
            1     24      43.02 LREW06             B          1650.00   0.30   0.15   1.00    0.65    192.200        123.237
            1     25       9.54 LREW08             C          1650.00   0.30   0.24   1.00    0.80    203.900        130.739
            1     26       2.16 LREW09             C          1650.00   0.23   0.10   1.00    0.48    136.400         87.459
            1     27      18.45 LREW10             D          1780.00   0.16   0.10   1.00    0.44    159.800        102.463
            1     28       1.71 LREW03             B          1520.00   0.30   0.15   1.00    0.29    173.200        111.055
            1     29      28.08 LREW04             B          1930.00   0.30   0.28   1.00    0.24    285.900        183.317
            1     30       2.70 LREW05             B          1650.00   0.30   0.15   1.00    0.33    167.600        107.464
            1     31      11.34 LREW06             B          1650.00   0.30   0.15   1.00    0.63    192.200        123.237
            1     32       0.72 LREW09             C          1650.00   0.23   0.10   1.00    0.36    136.400         87.459
            1     33      27.72 LREW10             D          1780.00   0.16   0.10   1.00    0.36    159.800        102.463
            1     34      28.08 LREW12             D            25.40   0.23   0.00   1.00    0.33      0.254          0.163
            1     35       0.27 LREW03             B          1520.00   0.30   0.15   1.00    0.67    173.200        111.055
            1     36       0.27 LREW04             B          1930.00   0.30   0.28   1.00    0.23    285.900        183.317
            1     37       0.45 LREW05             B          1650.00   0.30   0.15   1.00    0.63    167.600        107.464
            1     38      11.52 LREW06             B          1650.00   0.30   0.15   1.00    0.42    192.200        123.237
            1     39       0.72 LREW08             C          1650.00   0.30   0.24   1.00    0.77    203.900        130.739
            1     40       0.09 LREW09             C          1650.00   0.23   0.10   1.00    0.33    136.400         87.459
            1     41       2.07 LREW10             D          1780.00   0.16   0.10   1.00    0.42    159.800        102.463
            2     42       2.52 LREW02             A          2160.00   0.30   0.10   1.00    0.63    138.400         88.741
            2     43      22.95 LREW03             B          1520.00   0.30   0.15   1.00    0.48    173.200        111.055
            2     44       0.18 LREW04             B          1930.00   0.30   0.28   1.00    0.31    285.900        183.317
            2     45      11.79 LREW05             B          1650.00   0.30   0.15   1.00    0.33    167.600        107.464
            2     46     140.49 LREW06             B          1650.00   0.30   0.15   1.00    0.42    192.200        123.237
            2     47       2.61 LREW08             C          1650.00   0.30   0.24   1.00    0.90    203.900        130.739
            2     48       8.82 LREW09             C          1650.00   0.23   0.10   1.00    0.50    136.400         87.459
            2     49       5.04 LREW10             D          1780.00   0.16   0.10   1.00    0.40    159.800        102.463
            2     50       8.28 LREW02             A          2000.00   0.30   0.10   1.00    0.56    138.400         88.741
            2     51       7.47 LREW03             B          1520.00   0.30   0.15   1.00    0.35    173.200        111.055
            2     52       1.26 LREW04             B          1930.00   0.30   0.28   1.00    0.26    285.900        183.317
            2     53       1.98 LREW05             B          1650.00   0.30   0.15   1.00    0.28    167.600        107.464
            2     54      35.37 LREW06             B          1650.00   0.30   0.15   1.00    0.60    192.200        123.237
            2     55       1.62 LREW08             C          1650.00   0.30   0.24   1.00    0.63    203.900        130.739
            2     56       2.43 LREW09             C          1650.00   0.23   0.10   1.00    0.36    136.400         87.459
            2     57       5.40 LREW10             D          1780.00   0.16   0.10   1.00    0.36    159.800        102.463
            2     58       2.61 LREW02             A          2160.00   0.30   0.10   1.00    0.48    138.400         88.741
            2     59      21.15 LREW03             B          1520.00   0.30   0.15   1.00    0.60    173.200        111.055
            2     60       2.88 LREW04             B          1930.00   0.30   0.28   1.00    0.31    285.900        183.317
            2     61       9.63 LREW05             B          1650.00   0.30   0.15   1.00    0.42    167.600        107.464
            2     62      92.61 LREW06             B          1650.00   0.30   0.15   1.00    0.56    192.200        123.237
            2     63       3.87 LREW08             C          1650.00   0.30   0.24   1.00    0.87    203.900        130.739
            2     64       7.02 LREW09             C          1650.00   0.23   0.10   1.00    0.54    136.400         87.459
            2     65      27.45 LREW10             D          1780.00   0.16   0.10   1.00    0.40    159.800        102.463
            2     66       5.58 LREW03             B          1520.00   0.30   0.15   1.00    0.67    173.200        111.055
            2     67       1.80 LREW04             B          1930.00   0.30   0.28   1.00    0.15    285.900        183.317
            2     68       2.88 LREW05             B          1650.00   0.30   0.15   1.00    0.42    167.600        107.464
            2     69      19.08 LREW06             B          1650.00   0.30   0.15   1.00    0.63    192.200        123.237
            2     70       1.80 LREW08             C          1650.00   0.30   0.24   1.00    0.54    203.900        130.739
            2     71       1.35 LREW09             C          1650.00   0.23   0.10   1.00    0.38    136.400         87.459
            2     72      17.55 LREW10             D          1780.00   0.16   0.10   1.00    0.42    159.800        102.463
            2     73       0.36 LREW02             A          2160.00   0.30   0.10   1.00    0.35    138.400         88.741
            2     74       0.36 LREW03             B          1520.00   0.30   0.15   1.00    0.80    173.200        111.055
            2     75       8.91 LREW04             B          1930.00   0.30   0.28   1.00    0.30    285.900        183.317
            2     76       2.25 LREW05             B          1650.00   0.30   0.15   1.00    0.27    167.600        107.464
            2     77       6.84 LREW06             B          1650.00   0.30   0.15   1.00    0.70    192.200        123.237
            2     78       3.42 LREW08             C          1650.00   0.30   0.24   1.00    0.82    203.900        130.739
            2     79       1.26 LREW09             C          1650.00   0.23   0.10   1.00    0.52    136.400         87.459
            2     80      11.79 LREW10             D          1780.00   0.16   0.10   1.00    0.30    159.800        102.463
            2     81      16.20 LREW12             D            25.40   0.23   0.00   1.00    0.38      0.254          0.163
            2     82       0.27 LREW02             A          2000.00   0.30   0.10   1.00    0.27    138.400         88.741
            2     83       0.63 LREW03             B          1520.00   0.30   0.15   1.00    0.89    173.200        111.055
            2     84       0.36 LREW04             B          1930.00   0.30   0.28   1.00    0.63    285.900        183.317
            2     85       3.15 LREW06             B          1650.00   0.30   0.15   1.00    0.52    192.200        123.237
            2     86       2.79 LREW08             C          1650.00   0.30   0.24   1.00    1.00    203.900        130.739
            2     87       0.36 LREW10             D          1780.00   0.16   0.10   1.00    0.38    159.800        102.463
            3     88       0.09 LREW02             A          2160.00   0.30   0.10   1.00    0.30    138.400         88.741
            3     89       9.90 LREW03             B          1520.00   0.30   0.15   1.00    0.42    173.200        111.055
            3     90       0.18 LREW04             B          1930.00   0.30   0.28   1.00    0.36    285.900        183.317
            3     91      12.78 LREW05             B          1650.00   0.30   0.15   1.00    0.50    167.600        107.464
            3     92     223.83 LREW06             B          1650.00   0.30   0.15   1.00    0.52    192.200        123.237
            3     93       5.58 LREW08             C          1650.00   0.30   0.24   1.00    0.70    203.900        130.739
            3     94       5.58 LREW09             C          1650.00   0.23   0.10   1.00    0.33    136.400         87.459
            3     95      10.35 LREW10             D          1780.00   0.16   0.10   1.00    0.60    159.800        102.463
            3     96       0.18 LREW02             A          2000.00   0.30   0.10   1.00    0.30    138.400         88.741
            3     97       4.86 LREW03             B          1520.00   0.30   0.15   1.00    0.60    173.200        111.055
            3     98       5.94 LREW04             B          1930.00   0.30   0.28   1.00    0.26    285.900        183.317
            3     99      17.55 LREW05             B          1650.00   0.30   0.15   1.00    0.56    167.600        107.464
            3    100      20.79 LREW06             B          1650.00   0.30   0.15   1.00    0.56    192.200        123.237
            3    101      25.02 LREW08             C          1650.00   0.30   0.24   1.00    0.76    203.900        130.739
            3    102      10.80 LREW09             C          1650.00   0.23   0.10   1.00    0.33    136.400         87.459
            3    103      15.21 LREW10             D          1780.00   0.16   0.10   1.00    0.44    159.800        102.463
            3    104       0.63 LREW02             A          2160.00   0.30   0.10   1.00    0.30    138.400         88.741
            3    105       6.93 LREW03             B          1520.00   0.30   0.15   1.00    0.70    173.200        111.055
            3    106      10.35 LREW04             B          1930.00   0.30   0.28   1.00    0.30    285.900        183.317
            3    107      40.59 LREW05             B          1650.00   0.30   0.15   1.00    0.75    167.600        107.464
            3    108     120.69 LREW06             B          1650.00   0.30   0.15   1.00    0.58    192.200        123.237
            3    109      24.84 LREW08             C          1650.00   0.30   0.24   1.00    0.87    203.900        130.739
            3    110       4.14 LREW09             C          1650.00   0.23   0.10   1.00    0.40    136.400         87.459
            3    111      36.99 LREW10             D          1780.00   0.16   0.10   1.00    0.52    159.800        102.463
            3    112       0.72 LREW02             A          2160.00   0.30   0.10   1.00    0.27    138.400         88.741
            3    113       2.97 LREW03             B          1520.00   0.30   0.15   1.00    0.28    173.200        111.055
            3    114       7.11 LREW04             B          1930.00   0.30   0.28   1.00    0.27    285.900        183.317
            3    115       9.99 LREW05             B          1650.00   0.30   0.15   1.00    0.60    167.600        107.464
            3    116      15.93 LREW06             B          1650.00   0.30   0.15   1.00    0.58    192.200        123.237
            3    117      10.26 LREW08             C          1650.00   0.30   0.24   1.00    0.82    203.900        130.739
            3    118       2.43 LREW09             C          1650.00   0.23   0.10   1.00    0.30    136.400         87.459
            3    119      22.59 LREW10             D          1780.00   0.16   0.10   1.00    0.42    159.800        102.463
            3    120       0.18 LREW03             B          1520.00   0.30   0.15   1.00    0.54    173.200        111.055
            3    121      34.29 LREW04             B          1930.00   0.30   0.28   1.00    0.29    285.900        183.317
            3    122       3.33 LREW05             B          1650.00   0.30   0.15   1.00    0.60    167.600        107.464
            3    123       7.29 LREW06             B          1650.00   0.30   0.15   1.00    0.70    192.200        123.237
            3    124      12.51 LREW08             C          1650.00   0.30   0.24   1.00    0.58    203.900        130.739
            3    125       3.15 LREW09             C          1650.00   0.23   0.10   1.00    0.27    136.400         87.459
            3    126      23.76 LREW10             D          1780.00   0.16   0.10   1.00    0.35    159.800        102.463
            3    127       8.19 LREW12             D            25.40   0.23   0.00   1.00    0.40      0.254          0.163
            3    128       0.09 LREW03             B          1520.00   0.30   0.15   1.00    0.58    173.200        111.055
            3    129       0.18 LREW04             B          1930.00   0.30   0.28   1.00    0.27    285.900        183.317
            3    130       0.63 LREW05             B          1650.00   0.30   0.15   1.00    0.40    167.600        107.464
            3    131       3.15 LREW06             B          1650.00   0.30   0.15   1.00    0.56    192.200        123.237
            3    132       0.27 LREW08             C          1650.00   0.30   0.24   1.00    0.40    203.900        130.739
            3    133       0.09 LREW09             C          1650.00   0.23   0.10   1.00    0.48    136.400         87.459
            3    134       0.72 LREW10             D          1780.00   0.16   0.10   1.00    0.38    159.800        102.463

         HRU Input Summary Table 3:
          Sub   HRU   Area(ha) Urban Irrig DrainTiles Pothole Pstcide Biomix Septic
            1      1      18.54                                          0.20 x
            1      2       9.36                                          0.20 x
            1      3     346.77                                          0.20 x
            1      4      10.35                                          0.20 x
            1      5       2.25                                          0.20 x
            1      6      15.66                                          0.20 x
            1      7       4.77                                          0.20 x
            1      8       0.99                                          0.20 x
            1      9       2.25                                          0.20 x
            1     10      26.37                                          0.20 x
            1     11       2.25                                          0.20 x
            1     12       0.99                                          0.20 x
            1     13       4.86                                          0.20 x
            1     14      14.76                                          0.20 x
            1     15      11.79                                          0.20 x
            1     16       6.48                                          0.20 x
            1     17     129.42                                          0.20 x
            1     18       7.20                                          0.20 x
            1     19       5.40                                          0.20 x
            1     20      44.46                                          0.20 x
            1     21       6.57                                          0.20 x
            1     22       5.94                                          0.20 x
            1     23      11.88                                          0.20 x
            1     24      43.02                                          0.20 x
            1     25       9.54                                          0.20 x
            1     26       2.16                                          0.20 x
            1     27      18.45                                          0.20 x
            1     28       1.71                                          0.20 x
            1     29      28.08                                          0.20 x
            1     30       2.70                                          0.20 x
            1     31      11.34                                          0.20 x
            1     32       0.72                                          0.20 x
            1     33      27.72                                          0.20 x
            1     34      28.08                                          0.20 x
            1     35       0.27   x                                      0.20 x
            1     36       0.27   x                                      0.20 x
            1     37       0.45   x                                      0.20 x
            1     38      11.52   x                                      0.20 x
            1     39       0.72   x                                      0.20 x
            1     40       0.09   x                                      0.20 x
            1     41       2.07   x                                      0.20 x
            2     42       2.52                                          0.20 x
            2     43      22.95                                          0.20 x
            2     44       0.18                                          0.20 x
            2     45      11.79                                          0.20 x
            2     46     140.49                                          0.20 x
            2     47       2.61                                          0.20 x
            2     48       8.82                                          0.20 x
            2     49       5.04                                          0.20 x
            2     50       8.28                                          0.20 x
            2     51       7.47                                          0.20 x
            2     52       1.26                                          0.20 x
            2     53       1.98                                          0.20 x
            2     54      35.37                                          0.20 x
            2     55       1.62                                          0.20 x
            2     56       2.43                                          0.20 x
            2     57       5.40                                          0.20 x
            2     58       2.61                                          0.20 x
            2     59      21.15                                          0.20 x
            2     60       2.88                                          0.20 x
            2     61       9.63                                          0.20 x
            2     62      92.61                                          0.20 x
            2     63       3.87                                          0.20 x
            2     64       7.02                                          0.20 x
            2     65      27.45                                          0.20 x
            2     66       5.58                                          0.20 x
            2     67       1.80                                          0.20 x
            2     68       2.88                                          0.20 x
            2     69      19.08                                          0.20 x
            2     70       1.80                                          0.20 x
            2     71       1.35                                          0.20 x
            2     72      17.55                                          0.20 x
            2     73       0.36                                          0.20 x
            2     74       0.36                                          0.20 x
            2     75       8.91                                          0.20 x
            2     76       2.25                                          0.20 x
            2     77       6.84                                          0.20 x
            2     78       3.42                                          0.20 x
            2     79       1.26                                          0.20 x
            2     80      11.79                                          0.20 x
            2     81      16.20                                          0.20 x
            2     82       0.27   x                                      0.20 x
            2     83       0.63   x                                      0.20 x
            2     84       0.36   x                                      0.20 x
            2     85       3.15   x                                      0.20 x
            2     86       2.79   x                                      0.20 x
            2     87       0.36   x                                      0.20 x
            3     88       0.09                                          0.20 x
            3     89       9.90                                          0.20 x
            3     90       0.18                                          0.20 x
            3     91      12.78                                          0.20 x
            3     92     223.83                                          0.20 x
            3     93       5.58                                          0.20 x
            3     94       5.58                                          0.20 x
            3     95      10.35                                          0.20 x
            3     96       0.18                                          0.20 x
            3     97       4.86                                          0.20 x
            3     98       5.94                                          0.20 x
            3     99      17.55                                          0.20 x
            3    100      20.79                                          0.20 x
            3    101      25.02                                          0.20 x
            3    102      10.80                                          0.20 x
            3    103      15.21                                          0.20 x
            3    104       0.63                                          0.20 x
            3    105       6.93                                          0.20 x
            3    106      10.35                                          0.20 x
            3    107      40.59                                          0.20 x
            3    108     120.69                                          0.20 x
            3    109      24.84                                          0.20 x
            3    110       4.14                                          0.20 x
            3    111      36.99                                          0.20 x
            3    112       0.72                                          0.20 x
            3    113       2.97                                          0.20 x
            3    114       7.11                                          0.20 x
            3    115       9.99                                          0.20 x
            3    116      15.93                                          0.20 x
            3    117      10.26                                          0.20 x
            3    118       2.43                                          0.20 x
            3    119      22.59                                          0.20 x
            3    120       0.18                                          0.20 x
            3    121      34.29                                          0.20 x
            3    122       3.33                                          0.20 x
            3    123       7.29                                          0.20 x
            3    124      12.51                                          0.20 x
            3    125       3.15                                          0.20 x
            3    126      23.76                                          0.20 x
            3    127       8.19                                          0.20 x
            3    128       0.09   x                                      0.20 x
            3    129       0.18   x                                      0.20 x
            3    130       0.63   x                                      0.20 x
            3    131       3.15   x                                      0.20 x
            3    132       0.27   x                                      0.20 x
            3    133       0.09   x                                      0.20 x
            3    134       0.72   x                                      0.20 x

         HRU Input Summary Table 4 (Groundwater):
          Sub   HRU   Area(ha) GWdelay(days), GWalpha(days) GWQmin(mm) GWrevap Revapmin(mm) Deepfr NO3(ppm) SolP(ppm)
            1      1      18.54        31.000         0.048   1000.000   0.020      750.000  0.050    0.000     0.000
            1      2       9.36        31.000         0.048   1000.000   0.020      750.000  0.050    0.000     0.000
            1      3     346.77        31.000         0.048   1000.000   0.020      750.000  0.050    0.000     0.000
            1      4      10.35        31.000         0.048   1000.000   0.020      750.000  0.050    0.000     0.000
            1      5       2.25        31.000         0.048   1000.000   0.020      750.000  0.050    0.000     0.000
            1      6      15.66        31.000         0.048   1000.000   0.020      750.000  0.050    0.000     0.000
            1      7       4.77        31.000         0.048   1000.000   0.020      750.000  0.050    0.000     0.000
            1      8       0.99        31.000         0.048   1000.000   0.020      750.000  0.050    0.000     0.000
            1      9       2.25        31.000         0.048   1000.000   0.020      750.000  0.050    0.000     0.000
            1     10      26.37        31.000         0.048   1000.000   0.020      750.000  0.050    0.000     0.000
            1     11       2.25        31.000         0.048   1000.000   0.020      750.000  0.050    0.000     0.000
            1     12       0.99        31.000         0.048   1000.000   0.020      750.000  0.050    0.000     0.000
            1     13       4.86        31.000         0.048   1000.000   0.020      750.000  0.050    0.000     0.000
            1     14      14.76        31.000         0.048   1000.000   0.020      750.000  0.050    0.000     0.000
            1     15      11.79        31.000         0.048   1000.000   0.020      750.000  0.050    0.000     0.000
            1     16       6.48        31.000         0.048   1000.000   0.020      750.000  0.050    0.000     0.000
            1     17     129.42        31.000         0.048   1000.000   0.020      750.000  0.050    0.000     0.000
            1     18       7.20        31.000         0.048   1000.000   0.020      750.000  0.050    0.000     0.000
            1     19       5.40        31.000         0.048   1000.000   0.020      750.000  0.050    0.000     0.000
            1     20      44.46        31.000         0.048   1000.000   0.020      750.000  0.050    0.000     0.000
            1     21       6.57        31.000         0.048   1000.000   0.020      750.000  0.050    0.000     0.000
            1     22       5.94        31.000         0.048   1000.000   0.020      750.000  0.050    0.000     0.000
            1     23      11.88        31.000         0.048   1000.000   0.020      750.000  0.050    0.000     0.000
            1     24      43.02        31.000         0.048   1000.000   0.020      750.000  0.050    0.000     0.000
            1     25       9.54        31.000         0.048   1000.000   0.020      750.000  0.050    0.000     0.000
            1     26       2.16        31.000         0.048   1000.000   0.020      750.000  0.050    0.000     0.000
            1     27      18.45        31.000         0.048   1000.000   0.020      750.000  0.050    0.000     0.000
            1     28       1.71        31.000         0.048   1000.000   0.020      750.000  0.050    0.000     0.000
            1     29      28.08        31.000         0.048   1000.000   0.020      750.000  0.050    0.000     0.000
            1     30       2.70        31.000         0.048   1000.000   0.020      750.000  0.050    0.000     0.000
            1     31      11.34        31.000         0.048   1000.000   0.020      750.000  0.050    0.000     0.000
            1     32       0.72        31.000         0.048   1000.000   0.020      750.000  0.050    0.000     0.000
            1     33      27.72        31.000         0.048   1000.000   0.020      750.000  0.050    0.000     0.000
            1     34      28.08        31.000         0.048   1000.000   0.020      750.000  0.050    0.000     0.000
            1     35       0.27        31.000         0.048   1000.000   0.020      750.000  0.050    0.000     0.000
            1     36       0.27        31.000         0.048   1000.000   0.020      750.000  0.050    0.000     0.000
            1     37       0.45        31.000         0.048   1000.000   0.020      750.000  0.050    0.000     0.000
            1     38      11.52        31.000         0.048   1000.000   0.020      750.000  0.050    0.000     0.000
            1     39       0.72        31.000         0.048   1000.000   0.020      750.000  0.050    0.000     0.000
            1     40       0.09        31.000         0.048   1000.000   0.020      750.000  0.050    0.000     0.000
            1     41       2.07        31.000         0.048   1000.000   0.020      750.000  0.050    0.000     0.000
            2     42       2.52        31.000         0.048   1000.000   0.020      750.000  0.050    0.000     0.000
            2     43      22.95        31.000         0.048   1000.000   0.020      750.000  0.050    0.000     0.000
            2     44       0.18        31.000         0.048   1000.000   0.020      750.000  0.050    0.000     0.000
            2     45      11.79        31.000         0.048   1000.000   0.020      750.000  0.050    0.000     0.000
            2     46     140.49        31.000         0.048   1000.000   0.020      750.000  0.050    0.000     0.000
            2     47       2.61        31.000         0.048   1000.000   0.020      750.000  0.050    0.000     0.000
            2     48       8.82        31.000         0.048   1000.000   0.020      750.000  0.050    0.000     0.000
            2     49       5.04        31.000         0.048   1000.000   0.020      750.000  0.050    0.000     0.000
            2     50       8.28        31.000         0.048   1000.000   0.020      750.000  0.050    0.000     0.000
            2     51       7.47        31.000         0.048   1000.000   0.020      750.000  0.050    0.000     0.000
            2     52       1.26        31.000         0.048   1000.000   0.020      750.000  0.050    0.000     0.000
            2     53       1.98        31.000         0.048   1000.000   0.020      750.000  0.050    0.000     0.000
            2     54      35.37        31.000         0.048   1000.000   0.020      750.000  0.050    0.000     0.000
            2     55       1.62        31.000         0.048   1000.000   0.020      750.000  0.050    0.000     0.000
            2     56       2.43        31.000         0.048   1000.000   0.020      750.000  0.050    0.000     0.000
            2     57       5.40        31.000         0.048   1000.000   0.020      750.000  0.050    0.000     0.000
            2     58       2.61        31.000         0.048   1000.000   0.020      750.000  0.050    0.000     0.000
            2     59      21.15        31.000         0.048   1000.000   0.020      750.000  0.050    0.000     0.000
            2     60       2.88        31.000         0.048   1000.000   0.020      750.000  0.050    0.000     0.000
            2     61       9.63        31.000         0.048   1000.000   0.020      750.000  0.050    0.000     0.000
            2     62      92.61        31.000         0.048   1000.000   0.020      750.000  0.050    0.000     0.000
            2     63       3.87        31.000         0.048   1000.000   0.020      750.000  0.050    0.000     0.000
            2     64       7.02        31.000         0.048   1000.000   0.020      750.000  0.050    0.000     0.000
            2     65      27.45        31.000         0.048   1000.000   0.020      750.000  0.050    0.000     0.000
            2     66       5.58        31.000         0.048   1000.000   0.020      750.000  0.050    0.000     0.000
            2     67       1.80        31.000         0.048   1000.000   0.020      750.000  0.050    0.000     0.000
            2     68       2.88        31.000         0.048   1000.000   0.020      750.000  0.050    0.000     0.000
            2     69      19.08        31.000         0.048   1000.000   0.020      750.000  0.050    0.000     0.000
            2     70       1.80        31.000         0.048   1000.000   0.020      750.000  0.050    0.000     0.000
            2     71       1.35        31.000         0.048   1000.000   0.020      750.000  0.050    0.000     0.000
            2     72      17.55        31.000         0.048   1000.000   0.020      750.000  0.050    0.000     0.000
            2     73       0.36        31.000         0.048   1000.000   0.020      750.000  0.050    0.000     0.000
            2     74       0.36        31.000         0.048   1000.000   0.020      750.000  0.050    0.000     0.000
            2     75       8.91        31.000         0.048   1000.000   0.020      750.000  0.050    0.000     0.000
            2     76       2.25        31.000         0.048   1000.000   0.020      750.000  0.050    0.000     0.000
            2     77       6.84        31.000         0.048   1000.000   0.020      750.000  0.050    0.000     0.000
            2     78       3.42        31.000         0.048   1000.000   0.020      750.000  0.050    0.000     0.000
            2     79       1.26        31.000         0.048   1000.000   0.020      750.000  0.050    0.000     0.000
            2     80      11.79        31.000         0.048   1000.000   0.020      750.000  0.050    0.000     0.000
            2     81      16.20        31.000         0.048   1000.000   0.020      750.000  0.050    0.000     0.000
            2     82       0.27        31.000         0.048   1000.000   0.020      750.000  0.050    0.000     0.000
            2     83       0.63        31.000         0.048   1000.000   0.020      750.000  0.050    0.000     0.000
            2     84       0.36        31.000         0.048   1000.000   0.020      750.000  0.050    0.000     0.000
            2     85       3.15        31.000         0.048   1000.000   0.020      750.000  0.050    0.000     0.000
            2     86       2.79        31.000         0.048   1000.000   0.020      750.000  0.050    0.000     0.000
            2     87       0.36        31.000         0.048   1000.000   0.020      750.000  0.050    0.000     0.000
            3     88       0.09        31.000         0.048   1000.000   0.020      750.000  0.050    0.000     0.000
            3     89       9.90        31.000         0.048   1000.000   0.020      750.000  0.050    0.000     0.000
            3     90       0.18        31.000         0.048   1000.000   0.020      750.000  0.050    0.000     0.000
            3     91      12.78        31.000         0.048   1000.000   0.020      750.000  0.050    0.000     0.000
            3     92     223.83        31.000         0.048   1000.000   0.020      750.000  0.050    0.000     0.000
            3     93       5.58        31.000         0.048   1000.000   0.020      750.000  0.050    0.000     0.000
            3     94       5.58        31.000         0.048   1000.000   0.020      750.000  0.050    0.000     0.000
            3     95      10.35        31.000         0.048   1000.000   0.020      750.000  0.050    0.000     0.000
            3     96       0.18        31.000         0.048   1000.000   0.020      750.000  0.050    0.000     0.000
            3     97       4.86        31.000         0.048   1000.000   0.020      750.000  0.050    0.000     0.000
            3     98       5.94        31.000         0.048   1000.000   0.020      750.000  0.050    0.000     0.000
            3     99      17.55        31.000         0.048   1000.000   0.020      750.000  0.050    0.000     0.000
            3    100      20.79        31.000         0.048   1000.000   0.020      750.000  0.050    0.000     0.000
            3    101      25.02        31.000         0.048   1000.000   0.020      750.000  0.050    0.000     0.000
            3    102      10.80        31.000         0.048   1000.000   0.020      750.000  0.050    0.000     0.000
