1
    SWAT Sep 7    VER 2018/Rev 670                                                                       0/ 0/   0      0: 0: 0

    General Input/Output section (file.cio):                                        
    11/27/2018 12:00:00 AM ARCGIS-SWAT interface AV                                 
                                                                                    


       SUB      GIS  MON   AREAkm2  PRECIPmm SNOMELTmm     PETmm      ETmm      SWmm    PERCmm    SURQmm    GW_Qmm    WYLDmm  SYLDt/ha ORGNkg/ha ORGPkg/haNSURQkg/ha SOLPkg/ha SEDPkg/ha LAT Q(mm)LATNO3kg/hGWNO3kg/haCHOLAmic/LCBODU mg/L DOXQ mg/L TNO3kg/ha   QTILEmm TVAPkg/ha
BIGSUB    1        0    1.87822E+01 0.580E+01 0.000E+00 0.103E+01 0.539E+00 0.191E+03 0.513E+01 0.141E+00 0.181E+01 0.232E+01 0.454E-10 0.648E-02 0.110E-02 0.175E-02 0.117E-03 0.196E-02 0.306E+00 0.194E-02 0.206E-03 .91939E-05 0.157E-09 0.226E+00 0.000E+00 0.000E+00 0.000E+00
BIGSUB    2        0    1.53442E+01 0.360E+01 0.000E+00 0.102E+01 0.554E+00 0.184E+03 0.338E+01 0.649E-01 0.180E+01 0.222E+01 0.839E-10 0.326E-02 0.565E-03 0.939E-03 0.604E-04 0.999E-03 0.289E+00 0.609E-02 0.202E-02 .11139E-05 0.484E-10 0.216E+00 0.000E+00 0.000E+00 0.000E+00
BIGSUB    3        0    1.78363E+01 0.310E+01 0.000E+00 0.101E+01 0.597E+00 0.191E+03 0.334E+01 0.643E-01 0.183E+01 0.224E+01 0.585E-10 0.359E-02 0.500E-03 0.225E-03 0.130E-04 0.119E-02 0.277E+00 0.757E-03 0.178E-03 .95016E-06 0.437E-11 0.223E+00 0.000E+00 0.000E+00 0.000E+00
BIGSUB    1        0    2.87822E+01 0.500E+00 0.000E+00 0.184E+01 0.126E+01 0.190E+03 0.524E+00 0.328E-02 0.183E+01 0.212E+01 0.454E-10 0.167E-03 0.291E-04 0.423E-04 0.328E-05 0.521E-04 0.221E+00 0.139E-02 0.217E-03 .12512E-09 0.000E+00 0.203E+00 0.000E+00 0.000E+00 0.000E+00
BIGSUB    2        0    2.53442E+01 0.000E+00 0.000E+00 0.183E+01 0.901E-01 0.184E+03 0.400E+00 0.967E-03 0.182E+01 0.209E+01 0.839E-10 0.519E-04 0.913E-05 0.147E-04 0.102E-05 0.161E-04 0.207E+00 0.432E-02 0.210E-02 .70977E-11 0.000E+00 0.200E+00 0.000E+00 0.000E+00 0.000E+00
BIGSUB    3        0    2.78363E+01 0.500E+00 0.000E+00 0.180E+01 0.792E+00 0.190E+03 0.744E+00 0.114E-02 0.185E+01 0.212E+01 0.585E-10 0.669E-04 0.928E-05 0.350E-05 0.229E-06 0.229E-04 0.201E+00 0.556E-03 0.186E-03 .10036E-10 0.000E+00 0.207E+00 0.000E+00 0.000E+00 0.000E+00
BIGSUB    1        0    3.87822E+01 0.000E+00 0.000E+00 0.126E+01 0.179E-01 0.190E+03 0.167E+00 0.981E-04 0.184E+01 0.207E+01 0.454E-10 0.499E-05 0.874E-06 0.126E-05 0.100E-06 0.157E-05 0.158E+00 0.991E-03 0.226E-03 .38148E-14 0.000E+00 0.227E+00 0.000E+00 0.000E+00 0.000E+00
BIGSUB    2        0    3.53442E+01 0.000E+00 0.000E+00 0.126E+01 0.156E-01 0.184E+03 0.153E+00 0.172E-04 0.184E+01 0.205E+01 0.839E-10 0.905E-06 0.161E-06 0.257E-06 0.189E-07 0.284E-06 0.149E+00 0.307E-02 0.216E-02 .45780E-16 0.000E+00 0.225E+00 0.000E+00 0.000E+00 0.000E+00
BIGSUB    3        0    3.78363E+01 0.000E+00 0.000E+00 0.128E+01 0.110E-01 0.190E+03 0.313E+00 0.231E-04 0.187E+01 0.208E+01 0.585E-10 0.134E-05 0.186E-06 0.672E-07 0.515E-08 0.465E-06 0.145E+00 0.409E-03 0.192E-03 .91813E-16 0.000E+00 0.233E+00 0.000E+00 0.000E+00 0.000E+00
BIGSUB    1        0    4.87822E+01 0.000E+00 0.000E+00 0.155E+01 0.732E-01 0.190E+03 0.735E-01 0.358E-05 0.186E+01 0.204E+01 0.454E-10 0.154E-06 0.274E-07 0.391E-07 0.364E-08 0.494E-07 0.113E+00 0.709E-03 0.233E-03 .11620E-18 0.000E+00 0.232E+00 0.000E+00 0.000E+00 0.000E+00
BIGSUB    2        0    4.53442E+01 0.000E+00 0.000E+00 0.155E+01 0.677E-01 0.183E+03 0.740E-01 0.102E-05 0.185E+01 0.202E+01 0.839E-10 0.169E-07 0.357E-08 0.528E-08 0.103E-08 0.646E-08 0.107E+00 0.219E-02 0.220E-02 .31315E-21 0.000E+00 0.231E+00 0.000E+00 0.000E+00 0.000E+00
BIGSUB    3        0    4.78363E+01 0.000E+00 0.000E+00 0.152E+01 0.279E-01 0.190E+03 0.151E+00 0.116E-05 0.188E+01 0.205E+01 0.585E-10 0.279E-07 0.446E-08 0.203E-08 0.981E-09 0.109E-07 0.106E+00 0.303E-03 0.196E-03 .84539E-21 0.000E+00 0.239E+00 0.000E+00 0.000E+00 0.000E+00
BIGSUB    1        0    5.87822E+01 0.000E+00 0.000E+00 0.173E+01 0.808E-01 0.189E+03 0.337E-01 0.986E-06 0.187E+01 0.202E+01 0.454E-10 0.529E-08 0.140E-08 0.176E-08 0.954E-09 0.286E-08 0.817E-01 0.509E-03 0.238E-03 .77001E-22 0.000E+00 0.214E+00 0.000E+00 0.000E+00 0.000E+00
BIGSUB    2        0    5.53442E+01 0.000E+00 0.000E+00 0.172E+01 0.748E-01 0.183E+03 0.374E-01 0.992E-06 0.186E+01 0.200E+01 0.839E-10 0.998E-09 0.962E-09 0.962E-09 0.962E-09 0.192E-08 0.777E-01 0.156E-02 0.222E-02 .23975E-22 0.000E+00 0.213E+00 0.000E+00 0.000E+00 0.000E+00
BIGSUB    3        0    5.78363E+01 0.000E+00 0.000E+00 0.169E+01 0.309E-01 0.190E+03 0.750E-01 0.992E-06 0.189E+01 0.203E+01 0.585E-10 0.125E-08 0.981E-09 0.981E-09 0.981E-09 0.196E-08 0.772E-01 0.227E-03 0.199E-03 .26079E-22 0.000E+00 0.221E+00 0.000E+00 0.000E+00 0.000E+00
BIGSUB    1        0    6.87822E+01 0.000E+00 0.000E+00 0.216E+01 0.801E-01 0.189E+03 0.149E-01 0.986E-06 0.187E+01 0.200E+01 0.454E-10 0.954E-09 0.954E-09 0.954E-09 0.954E-09 0.191E-08 0.592E-01 0.366E-03 0.240E-03 .21478E-22 0.000E+00 0.210E+00 0.000E+00 0.000E+00 0.000E+00
BIGSUB    2        0    6.53442E+01 0.000E+00 0.000E+00 0.215E+01 0.749E-01 0.183E+03 0.190E-01 0.992E-06 0.186E+01 0.199E+01 0.839E-10 0.962E-09 0.962E-09 0.962E-09 0.962E-09 0.192E-08 0.567E-01 0.111E-02 0.223E-02 .23756E-22 0.000E+00 0.209E+00 0.000E+00 0.000E+00 0.000E+00
BIGSUB    3        0    6.78363E+01 0.000E+00 0.000E+00 0.213E+01 0.273E-01 0.190E+03 0.376E-01 0.992E-06 0.189E+01 0.202E+01 0.585E-10 0.981E-09 0.981E-09 0.981E-09 0.981E-09 0.196E-08 0.569E-01 0.172E-03 0.201E-03 .23026E-22 0.000E+00 0.216E+00 0.000E+00 0.000E+00 0.000E+00
BIGSUB    1        0    7.87822E+01 0.000E+00 0.000E+00 0.197E+01 0.723E-01 0.189E+03 0.809E-02 0.986E-06 0.187E+01 0.199E+01 0.454E-10 0.954E-09 0.954E-09 0.954E-09 0.954E-09 0.191E-08 0.431E-01 0.265E-03 0.241E-03 .21702E-22 0.000E+00 0.225E+00 0.000E+00 0.000E+00 0.000E+00
BIGSUB    2        0    7.53442E+01 0.000E+00 0.000E+00 0.196E+01 0.686E-01 0.183E+03 0.105E-01 0.992E-06 0.187E+01 0.197E+01 0.839E-10 0.962E-09 0.962E-09 0.962E-09 0.962E-09 0.192E-08 0.416E-01 0.799E-03 0.222E-02 .23922E-22 0.000E+00 0.224E+00 0.000E+00 0.000E+00 0.000E+00
BIGSUB    3        0    7.78363E+01 0.000E+00 0.000E+00 0.194E+01 0.236E-01 0.190E+03 0.206E-01 0.992E-06 0.189E+01 0.200E+01 0.585E-10 0.981E-09 0.981E-09 0.981E-09 0.981E-09 0.196E-08 0.423E-01 0.132E-03 0.201E-03 .23222E-22 0.000E+00 0.232E+00 0.000E+00 0.000E+00 0.000E+00
BIGSUB    1        0    8.87822E+01 0.000E+00 0.000E+00 0.291E+01 0.793E-01 0.189E+03 0.448E-02 0.986E-06 0.187E+01 0.197E+01 0.454E-10 0.954E-09 0.954E-09 0.954E-09 0.954E-09 0.191E-08 0.316E-01 0.193E-03 0.241E-03 .21903E-22 0.000E+00 0.207E+00 0.000E+00 0.000E+00 0.000E+00
BIGSUB    2        0    8.53442E+01 0.000E+00 0.000E+00 0.291E+01 0.752E-01 0.183E+03 0.579E-02 0.992E-06 0.186E+01 0.196E+01 0.839E-10 0.962E-09 0.962E-09 0.962E-09 0.962E-09 0.192E-08 0.308E-01 0.575E-03 0.221E-02 .24074E-22 0.000E+00 0.206E+00 0.000E+00 0.000E+00 0.000E+00
BIGSUB    3        0    8.78363E+01 0.000E+00 0.000E+00 0.289E+01 0.259E-01 0.190E+03 0.114E-01 0.992E-06 0.189E+01 0.199E+01 0.585E-10 0.981E-09 0.981E-09 0.981E-09 0.981E-09 0.196E-08 0.318E-01 0.103E-03 0.200E-03 .23406E-22 0.000E+00 0.213E+00 0.000E+00 0.000E+00 0.000E+00
BIGSUB    1        0    9.87822E+01 0.000E+00 0.000E+00 0.286E+01 0.884E-01 0.189E+03 0.248E-02 0.986E-06 0.187E+01 0.196E+01 0.454E-10 0.954E-09 0.954E-09 0.954E-09 0.954E-09 0.191E-08 0.234E-01 0.142E-03 0.239E-03 .22103E-22 0.000E+00 0.192E+00 0.000E+00 0.000E+00 0.000E+00
BIGSUB    2        0    9.53442E+01 0.000E+00 0.000E+00 0.286E+01 0.838E-01 0.183E+03 0.321E-02 0.992E-06 0.186E+01 0.195E+01 0.839E-10 0.962E-09 0.962E-09 0.962E-09 0.962E-09 0.192E-08 0.230E-01 0.416E-03 0.218E-02 .24235E-22 0.000E+00 0.191E+00 0.000E+00 0.000E+00 0.000E+00
BIGSUB    3        0    9.78363E+01 0.000E+00 0.000E+00 0.284E+01 0.289E-01 0.190E+03 0.630E-02 0.992E-06 0.189E+01 0.198E+01 0.585E-10 0.981E-09 0.981E-09 0.981E-09 0.981E-09 0.196E-08 0.242E-01 0.815E-04 0.198E-03 .23598E-22 0.000E+00 0.198E+00 0.000E+00 0.000E+00 0.000E+00
BIGSUB    1        0   10.87822E+01 0.000E+00 0.000E+00 0.238E+01 0.585E-01 0.189E+03 0.137E-02 0.986E-06 0.186E+01 0.195E+01 0.454E-10 0.954E-09 0.954E-09 0.954E-09 0.954E-09 0.191E-08 0.175E-01 0.105E-03 0.236E-03 .22317E-22 0.000E+00 0.196E+00 0.000E+00 0.000E+00 0.000E+00
BIGSUB    2        0   10.53442E+01 0.000E+00 0.000E+00 0.238E+01 0.554E-01 0.183E+03 0.177E-02 0.992E-06 0.186E+01 0.194E+01 0.839E-10 0.962E-09 0.962E-09 0.962E-09 0.962E-09 0.192E-08 0.174E-01 0.302E-03 0.215E-02 .24419E-22 0.000E+00 0.195E+00 0.000E+00 0.000E+00 0.000E+00
BIGSUB    3        0   10.78363E+01 0.000E+00 0.000E+00 0.238E+01 0.191E-01 0.190E+03 0.349E-02 0.992E-06 0.188E+01 0.197E+01 0.585E-10 0.981E-09 0.981E-09 0.981E-09 0.981E-09 0.196E-08 0.186E-01 0.654E-04 0.195E-03 .23812E-22 0.000E+00 0.202E+00 0.000E+00 0.000E+00 0.000E+00
BIGSUB    1        0   11.87822E+01 0.000E+00 0.000E+00 0.272E+01 0.739E-01 0.189E+03 0.758E-03 0.986E-06 0.185E+01 0.194E+01 0.454E-10 0.954E-09 0.954E-09 0.954E-09 0.954E-09 0.191E-08 0.133E-01 0.785E-04 0.233E-03 .22555E-22 0.000E+00 0.217E+00 0.000E+00 0.000E+00 0.000E+00
BIGSUB    2        0   11.53442E+01 0.000E+00 0.000E+00 0.272E+01 0.700E-01 0.183E+03 0.982E-03 0.992E-06 0.185E+01 0.193E+01 0.839E-10 0.962E-09 0.962E-09 0.962E-09 0.962E-09 0.192E-08 0.133E-01 0.221E-03 0.211E-02 .24636E-22 0.000E+00 0.216E+00 0.000E+00 0.000E+00 0.000E+00
BIGSUB    3        0   11.78363E+01 0.000E+00 0.000E+00 0.270E+01 0.241E-01 0.190E+03 0.193E-02 0.992E-06 0.187E+01 0.196E+01 0.585E-10 0.981E-09 0.981E-09 0.981E-09 0.981E-09 0.196E-08 0.146E-01 0.533E-04 0.191E-03 .24057E-22 0.000E+00 0.224E+00 0.000E+00 0.000E+00 0.000E+00
BIGSUB    1        0   12.87822E+01 0.000E+00 0.000E+00 0.227E+01 0.288E-01 0.189E+03 0.419E-03 0.986E-06 0.184E+01 0.193E+01 0.454E-10 0.954E-09 0.954E-09 0.954E-09 0.954E-09 0.191E-08 0.102E-01 0.594E-04 0.228E-03 .22826E-22 0.000E+00 0.223E+00 0.000E+00 0.000E+00 0.000E+00
BIGSUB    2        0   12.53442E+01 0.000E+00 0.000E+00 0.227E+01 0.273E-01 0.183E+03 0.543E-03 0.992E-06 0.184E+01 0.192E+01 0.839E-10 0.962E-09 0.962E-09 0.962E-09 0.962E-09 0.192E-08 0.103E-01 0.163E-03 0.206E-02 .24892E-22 0.000E+00 0.222E+00 0.000E+00 0.000E+00 0.000E+00
BIGSUB    3        0   12.78363E+01 0.000E+00 0.000E+00 0.229E+01 0.941E-02 0.190E+03 0.107E-02 0.992E-06 0.186E+01 0.194E+01 0.585E-10 0.981E-09 0.981E-09 0.981E-09 0.981E-09 0.196E-08 0.116E-01 0.441E-04 0.187E-03 .24339E-22 0.000E+00 0.230E+00 0.000E+00 0.000E+00 0.000E+00
BIGSUB    1        0   13.87822E+01 0.000E+00 0.000E+00 0.162E+01 0.320E-01 0.189E+03 0.232E-03 0.986E-06 0.183E+01 0.191E+01 0.454E-10 0.954E-09 0.954E-09 0.954E-09 0.954E-09 0.191E-08 0.793E-02 0.455E-04 0.223E-03 .23134E-22 0.000E+00 0.212E+00 0.000E+00 0.000E+00 0.000E+00
BIGSUB    2        0   13.53442E+01 0.000E+00 0.000E+00 0.162E+01 0.304E-01 0.183E+03 0.301E-03 0.992E-06 0.183E+01 0.190E+01 0.839E-10 0.962E-09 0.962E-09 0.962E-09 0.962E-09 0.192E-08 0.814E-02 0.122E-03 0.201E-02 .25193E-22 0.000E+00 0.211E+00 0.000E+00 0.000E+00 0.000E+00
BIGSUB    3        0   13.78363E+01 0.000E+00 0.000E+00 0.162E+01 0.105E-01 0.190E+03 0.591E-03 0.992E-06 0.185E+01 0.193E+01 0.585E-10 0.981E-09 0.981E-09 0.981E-09 0.981E-09 0.196E-08 0.931E-02 0.369E-04 0.183E-03 .24662E-22 0.000E+00 0.219E+00 0.000E+00 0.000E+00 0.000E+00
BIGSUB    1        0   14.87822E+01 0.000E+00 0.000E+00 0.240E+01 0.805E-01 0.189E+03 0.128E-03 0.986E-06 0.182E+01 0.190E+01 0.454E-10 0.954E-09 0.954E-09 0.954E-09 0.954E-09 0.191E-08 0.627E-02 0.354E-04 0.218E-03 .23481E-22 0.000E+00 0.206E+00 0.000E+00 0.000E+00 0.000E+00
BIGSUB    2        0   14.53442E+01 0.000E+00 0.000E+00 0.240E+01 0.764E-01 0.183E+03 0.166E-03 0.992E-06 0.181E+01 0.189E+01 0.839E-10 0.962E-09 0.962E-09 0.962E-09 0.962E-09 0.192E-08 0.649E-02 0.915E-04 0.195E-02 .25539E-22 0.000E+00 0.205E+00 0.000E+00 0.000E+00 0.000E+00
BIGSUB    3        0   14.78363E+01 0.000E+00 0.000E+00 0.238E+01 0.263E-01 0.190E+03 0.327E-03 0.992E-06 0.183E+01 0.191E+01 0.585E-10 0.981E-09 0.981E-09 0.981E-09 0.981E-09 0.196E-08 0.761E-02 0.313E-04 0.178E-03 .25030E-22 0.000E+00 0.212E+00 0.000E+00 0.000E+00 0.000E+00
BIGSUB    1        0   15.87822E+01 0.000E+00 0.000E+00 0.254E+01 0.789E-01 0.189E+03 0.710E-04 0.986E-06 0.180E+01 0.188E+01 0.454E-10 0.954E-09 0.954E-09 0.954E-09 0.954E-09 0.191E-08 0.503E-02 0.279E-04 0.212E-03 .23871E-22 0.000E+00 0.207E+00 0.000E+00 0.000E+00 0.000E+00
BIGSUB    2        0   15.53442E+01 0.000E+00 0.000E+00 0.254E+01 0.748E-01 0.183E+03 0.921E-04 0.992E-06 0.180E+01 0.187E+01 0.839E-10 0.962E-09 0.962E-09 0.962E-09 0.962E-09 0.192E-08 0.526E-02 0.697E-04 0.190E-02 .25934E-22 0.000E+00 0.206E+00 0.000E+00 0.000E+00 0.000E+00
BIGSUB    3        0   15.78363E+01 0.000E+00 0.000E+00 0.252E+01 0.258E-01 0.190E+03 0.181E-03 0.992E-06 0.182E+01 0.189E+01 0.585E-10 0.981E-09 0.981E-09 0.981E-09 0.981E-09 0.196E-08 0.631E-02 0.269E-04 0.173E-03 .25444E-22 0.000E+00 0.213E+00 0.000E+00 0.000E+00 0.000E+00
BIGSUB    1        0   16.87822E+01 0.150E+01 0.000E+00 0.224E+01 0.146E+01 0.189E+03 0.163E+00 0.696E-04 0.178E+01 0.187E+01 0.648E-06 0.819E-06 0.110E-06 0.670E-06 0.143E-07 0.193E-06 0.101E-01 0.122E-03 0.205E-03 .23064E-12 0.818E-07 0.200E+00 0.000E+00 0.000E+00 0.000E+00
BIGSUB    2        0   16.53442E+01 0.100E+01 0.000E+00 0.224E+01 0.156E+01 0.182E+03 0.395E+00 0.992E-06 0.178E+01 0.186E+01 0.839E-10 0.962E-09 0.962E-09 0.962E-09 0.962E-09 0.192E-08 0.127E-01 0.295E-03 0.184E-02 .26101E-22 0.000E+00 0.200E+00 0.000E+00 0.000E+00 0.000E+00
BIGSUB    3        0   16.78363E+01 0.130E+01 0.000E+00 0.223E+01 0.159E+01 0.189E+03 0.376E+00 0.939E-05 0.180E+01 0.189E+01 0.585E-10 0.981E-09 0.981E-09 0.361E-06 0.315E-08 0.196E-08 0.147E-01 0.585E-04 0.168E-03 .68671E-14 0.000E+00 0.207E+00 0.000E+00 0.000E+00 0.000E+00
BIGSUB    1        0   17.87822E+01 0.300E+00 0.000E+00 0.224E+01 0.278E+00 0.189E+03 0.170E-01 0.109E-05 0.177E+01 0.185E+01 0.454E-10 0.212E-08 0.110E-08 0.256E-08 0.963E-09 0.218E-08 0.816E-02 0.102E-03 0.199E-03 .98475E-20 0.000E+00 0.215E+00 0.000E+00 0.000E+00 0.000E+00
BIGSUB    2        0   17.53442E+01 0.000E+00 0.000E+00 0.224E+01 0.696E-01 0.182E+03 0.220E-01 0.992E-06 0.176E+01 0.184E+01 0.839E-10 0.962E-09 0.962E-09 0.962E-09 0.962E-09 0.192E-08 0.956E-02 0.213E-03 0.178E-02 .26645E-22 0.000E+00 0.215E+00 0.000E+00 0.000E+00 0.000E+00
BIGSUB    3        0   17.78363E+01 0.000E+00 0.000E+00 0.222E+01 0.286E-01 0.189E+03 0.179E-01 0.998E-06 0.178E+01 0.186E+01 0.585E-10 0.981E-09 0.981E-09 0.153E-08 0.982E-09 0.196E-08 0.112E-01 0.456E-04 0.163E-03 .16678E-21 0.000E+00 0.222E+00 0.000E+00 0.000E+00 0.000E+00
BIGSUB    1        0   18.87822E+01 0.000E+00 0.000E+00 0.195E+01 0.674E-01 0.189E+03 0.360E-02 0.986E-06 0.175E+01 0.182E+01 0.454E-10 0.954E-09 0.954E-09 0.960E-09 0.954E-09 0.191E-08 0.625E-02 0.744E-04 0.192E-03 .25221E-22 0.000E+00 0.227E+00 0.000E+00 0.000E+00 0.000E+00
BIGSUB    2        0   18.53442E+01 0.000E+00 0.000E+00 0.195E+01 0.658E-01 0.182E+03 0.367E-02 0.992E-06 0.174E+01 0.182E+01 0.839E-10 0.962E-09 0.962E-09 0.962E-09 0.962E-09 0.192E-08 0.728E-02 0.155E-03 0.172E-02 .27223E-22 0.000E+00 0.226E+00 0.000E+00 0.000E+00 0.000E+00
BIGSUB    3        0   18.78363E+01 0.000E+00 0.000E+00 0.193E+01 0.220E-01 0.189E+03 0.386E-02 0.992E-06 0.176E+01 0.184E+01 0.585E-10 0.981E-09 0.981E-09 0.982E-09 0.981E-09 0.196E-08 0.863E-02 0.360E-04 0.157E-03 .26781E-22 0.000E+00 0.234E+00 0.000E+00 0.000E+00 0.000E+00
BIGSUB    1        0   19.87822E+01 0.000E+00 0.000E+00 0.273E+01 0.802E-01 0.189E+03 0.171E-02 0.986E-06 0.173E+01 0.180E+01 0.454E-10 0.954E-09 0.954E-09 0.954E-09 0.954E-09 0.191E-08 0.485E-02 0.547E-04 0.186E-03 .25759E-22 0.000E+00 0.205E+00 0.000E+00 0.000E+00 0.000E+00
BIGSUB    2        0   19.53442E+01 0.000E+00 0.000E+00 0.273E+01 0.761E-01 0.182E+03 0.148E-02 0.992E-06 0.172E+01 0.180E+01 0.839E-10 0.962E-09 0.962E-09 0.962E-09 0.962E-09 0.192E-08 0.561E-02 0.113E-03 0.166E-02 .27839E-22 0.000E+00 0.204E+00 0.000E+00 0.000E+00 0.000E+00
BIGSUB    3        0   19.78363E+01 0.000E+00 0.000E+00 0.272E+01 0.262E-01 0.189E+03 0.185E-02 0.992E-06 0.174E+01 0.182E+01 0.585E-10 0.981E-09 0.981E-09 0.981E-09 0.981E-09 0.196E-08 0.674E-02 0.289E-04 0.152E-03 .27407E-22 0.000E+00 0.211E+00 0.000E+00 0.000E+00 0.000E+00
BIGSUB    1        0   20.87822E+01 0.000E+00 0.000E+00 0.290E+01 0.873E-01 0.189E+03 0.912E-03 0.986E-06 0.170E+01 0.178E+01 0.454E-10 0.954E-09 0.954E-09 0.954E-09 0.954E-09 0.191E-08 0.382E-02 0.405E-04 0.179E-03 .26393E-22 0.000E+00 0.185E+00 0.000E+00 0.000E+00 0.000E+00
BIGSUB    2        0   20.53442E+01 0.000E+00 0.000E+00 0.290E+01 0.828E-01 0.182E+03 0.779E-03 0.992E-06 0.170E+01 0.177E+01 0.839E-10 0.962E-09 0.962E-09 0.962E-09 0.962E-09 0.192E-08 0.438E-02 0.830E-04 0.160E-02 .28500E-22 0.000E+00 0.185E+00 0.000E+00 0.000E+00 0.000E+00
BIGSUB    3        0   20.78363E+01 0.000E+00 0.000E+00 0.288E+01 0.285E-01 0.189E+03 0.999E-03 0.992E-06 0.172E+01 0.180E+01 0.585E-10 0.981E-09 0.981E-09 0.981E-09 0.981E-09 0.196E-08 0.535E-02 0.235E-04 0.146E-03 .28083E-22 0.000E+00 0.191E+00 0.000E+00 0.000E+00 0.000E+00
BIGSUB    1        0   21.87822E+01 0.000E+00 0.000E+00 0.159E+01 0.583E-01 0.189E+03 0.500E-03 0.986E-06 0.168E+01 0.176E+01 0.454E-10 0.954E-09 0.954E-09 0.954E-09 0.954E-09 0.191E-08 0.306E-02 0.304E-04 0.172E-03 .27072E-22 0.000E+00 0.166E+00 0.000E+00 0.000E+00 0.000E+00
BIGSUB    2        0   21.53442E+01 0.000E+00 0.000E+00 0.159E+01 0.553E-01 0.182E+03 0.426E-03 0.992E-06 0.168E+01 0.175E+01 0.839E-10 0.962E-09 0.962E-09 0.962E-09 0.962E-09 0.192E-08 0.348E-02 0.616E-04 0.154E-02 .29208E-22 0.000E+00 0.166E+00 0.000E+00 0.000E+00 0.000E+00
BIGSUB    3        0   21.78363E+01 0.000E+00 0.000E+00 0.157E+01 0.191E-01 0.189E+03 0.549E-03 0.992E-06 0.170E+01 0.177E+01 0.585E-10 0.981E-09 0.981E-09 0.981E-09 0.981E-09 0.196E-08 0.431E-02 0.194E-04 0.140E-03 .28805E-22 0.000E+00 0.172E+00 0.000E+00 0.000E+00 0.000E+00
BIGSUB    1        0   22.87822E+01 0.150E+01 0.000E+00 0.682E+00 0.459E+00 0.190E+03 0.145E+00 0.696E-04 0.166E+01 0.174E+01 0.693E-06 0.871E-06 0.117E-06 0.608E-06 0.140E-07 0.206E-06 0.917E-02 0.118E-03 0.166E-03 .26734E-12 0.932E-07 0.172E+00 0.000E+00 0.000E+00 0.000E+00
BIGSUB    2        0   22.53442E+01 0.130E+01 0.000E+00 0.680E+00 0.341E+00 0.183E+03 0.536E-01 0.195E-04 0.166E+01 0.173E+01 0.839E-10 0.962E-09 0.962E-09 0.848E-06 0.501E-08 0.192E-08 0.683E-02 0.155E-03 0.147E-02 .19730E-13 0.000E+00 0.171E+00 0.000E+00 0.000E+00 0.000E+00
BIGSUB    3        0   22.78363E+01 0.150E+01 0.000E+00 0.652E+00 0.260E+00 0.190E+03 0.538E-01 0.261E-04 0.167E+01 0.175E+01 0.585E-10 0.981E-09 0.981E-09 0.105E-05 0.751E-08 0.196E-08 0.833E-02 0.478E-04 0.135E-03 .20410E-12 0.000E+00 0.177E+00 0.000E+00 0.000E+00 0.000E+00
BIGSUB    1        0   23.87822E+01 0.300E+00 0.300E+00 0.253E+01 0.544E+00 0.190E+03 0.973E-02 0.109E-05 0.163E+01 0.171E+01 0.454E-10 0.220E-08 0.111E-08 0.245E-08 0.962E-09 0.220E-08 0.742E-02 0.976E-04 0.159E-03 .11558E-19 0.000E+00 0.211E+00 0.000E+00 0.000E+00 0.000E+00
BIGSUB    2        0   23.53442E+01 0.000E+00 0.000E+00 0.253E+01 0.838E-01 0.183E+03 0.161E-02 0.100E-05 0.163E+01 0.171E+01 0.839E-10 0.962E-09 0.962E-09 0.169E-08 0.963E-09 0.192E-08 0.515E-02 0.112E-03 0.141E-02 .22748E-21 0.000E+00 0.211E+00 0.000E+00 0.000E+00 0.000E+00
BIGSUB    3        0   23.78363E+01 0.000E+00 0.000E+00 0.252E+01 0.300E-01 0.190E+03 0.157E-01 0.102E-05 0.165E+01 0.173E+01 0.585E-10 0.981E-09 0.981E-09 0.263E-08 0.984E-09 0.196E-08 0.635E-02 0.365E-04 0.130E-03 .48447E-20 0.000E+00 0.217E+00 0.000E+00 0.000E+00 0.000E+00
BIGSUB    1        0   24.87822E+01 0.000E+00 0.000E+00 0.186E+01 0.631E-01 0.190E+03 0.207E-02 0.986E-06 0.161E+01 0.169E+01 0.454E-10 0.954E-09 0.954E-09 0.960E-09 0.954E-09 0.191E-08 0.553E-02 0.706E-04 0.153E-03 .29287E-22 0.000E+00 0.221E+00 0.000E+00 0.000E+00 0.000E+00
BIGSUB    2        0   24.53442E+01 0.000E+00 0.000E+00 0.186E+01 0.598E-01 0.183E+03 0.163E-03 0.992E-06 0.161E+01 0.168E+01 0.839E-10 0.962E-09 0.962E-09 0.964E-09 0.962E-09 0.192E-08 0.392E-02 0.816E-04 0.136E-02 .31564E-22 0.000E+00 0.221E+00 0.000E+00 0.000E+00 0.000E+00
BIGSUB    3        0   24.78363E+01 0.000E+00 0.000E+00 0.184E+01 0.206E-01 0.190E+03 0.702E-02 0.992E-06 0.163E+01 0.170E+01 0.585E-10 0.981E-09 0.981E-09 0.984E-09 0.981E-09 0.196E-08 0.491E-02 0.283E-04 0.124E-03 .31206E-22 0.000E+00 0.228E+00 0.000E+00 0.000E+00 0.000E+00
BIGSUB    1        0   25.87822E+01 0.000E+00 0.000E+00 0.104E+01 0.445E-01 0.190E+03 0.922E-03 0.986E-06 0.159E+01 0.166E+01 0.454E-10 0.954E-09 0.954E-09 0.954E-09 0.954E-09 0.191E-08 0.417E-02 0.513E-04 0.146E-03 .30131E-22 0.000E+00 0.203E+00 0.000E+00 0.000E+00 0.000E+00
BIGSUB    2        0   25.53442E+01 0.000E+00 0.000E+00 0.104E+01 0.422E-01 0.183E+03 0.497E-04 0.992E-06 0.158E+01 0.166E+01 0.839E-10 0.962E-09 0.962E-09 0.962E-09 0.962E-09 0.192E-08 0.303E-02 0.598E-04 0.130E-02 .32503E-22 0.000E+00 0.202E+00 0.000E+00 0.000E+00 0.000E+00
BIGSUB    3        0   25.78363E+01 0.000E+00 0.000E+00 0.102E+01 0.146E-01 0.190E+03 0.382E-02 0.992E-06 0.160E+01 0.167E+01 0.585E-10 0.981E-09 0.981E-09 0.981E-09 0.981E-09 0.196E-08 0.386E-02 0.223E-04 0.119E-03 .32129E-22 0.000E+00 0.209E+00 0.000E+00 0.000E+00 0.000E+00
BIGSUB    1        0   26.87822E+01 0.000E+00 0.000E+00 0.209E+01 0.706E-01 0.190E+03 0.492E-03 0.986E-06 0.156E+01 0.163E+01 0.454E-10 0.954E-09 0.954E-09 0.954E-09 0.954E-09 0.191E-08 0.318E-02 0.376E-04 0.140E-03 .31090E-22 0.000E+00 0.181E+00 0.000E+00 0.000E+00 0.000E+00
BIGSUB    2        0   26.53442E+01 0.000E+00 0.000E+00 0.209E+01 0.669E-01 0.183E+03 0.232E-04 0.992E-06 0.156E+01 0.163E+01 0.839E-10 0.962E-09 0.962E-09 0.962E-09 0.962E-09 0.192E-08 0.237E-02 0.443E-04 0.124E-02 .33508E-22 0.000E+00 0.180E+00 0.000E+00 0.000E+00 0.000E+00
BIGSUB    3        0   26.78363E+01 0.000E+00 0.000E+00 0.207E+01 0.231E-01 0.190E+03 0.210E-02 0.992E-06 0.157E+01 0.165E+01 0.585E-10 0.981E-09 0.981E-09 0.981E-09 0.981E-09 0.196E-08 0.307E-02 0.178E-04 0.114E-03 .33142E-22 0.000E+00 0.186E+00 0.000E+00 0.000E+00 0.000E+00
BIGSUB    1        0   27.87822E+01 0.000E+00 0.000E+00 0.227E+01 0.813E-01 0.190E+03 0.270E-03 0.986E-06 0.153E+01 0.161E+01 0.454E-10 0.954E-09 0.954E-09 0.954E-09 0.954E-09 0.191E-08 0.247E-02 0.278E-04 0.134E-03 .32101E-22 0.000E+00 0.184E+00 0.000E+00 0.000E+00 0.000E+00
BIGSUB    2        0   27.53442E+01 0.000E+00 0.000E+00 0.227E+01 0.770E-01 0.183E+03 0.123E-04 0.992E-06 0.153E+01 0.160E+01 0.839E-10 0.962E-09 0.962E-09 0.962E-09 0.962E-09 0.192E-08 0.188E-02 0.331E-04 0.119E-02 .34573E-22 0.000E+00 0.183E+00 0.000E+00 0.000E+00 0.000E+00
BIGSUB    3        0   27.78363E+01 0.000E+00 0.000E+00 0.224E+01 0.266E-01 0.190E+03 0.116E-02 0.992E-06 0.155E+01 0.162E+01 0.585E-10 0.981E-09 0.981E-09 0.981E-09 0.981E-09 0.196E-08 0.249E-02 0.144E-04 0.109E-03 .34213E-22 0.000E+00 0.189E+00 0.000E+00 0.000E+00 0.000E+00
BIGSUB    1        0   28.87822E+01 0.000E+00 0.000E+00 0.234E+01 0.855E-01 0.190E+03 0.149E-03 0.986E-06 0.151E+01 0.158E+01 0.454E-10 0.954E-09 0.954E-09 0.954E-09 0.954E-09 0.191E-08 0.194E-02 0.207E-04 0.128E-03 .33169E-22 0.000E+00 0.174E+00 0.000E+00 0.000E+00 0.000E+00
BIGSUB    2        0   28.53442E+01 0.000E+00 0.000E+00 0.234E+01 0.810E-01 0.183E+03 0.675E-05 0.992E-06 0.151E+01 0.158E+01 0.839E-10 0.962E-09 0.962E-09 0.962E-09 0.962E-09 0.192E-08 0.152E-02 0.250E-04 0.113E-02 .35701E-22 0.000E+00 0.174E+00 0.000E+00 0.000E+00 0.000E+00
BIGSUB    3        0   28.78363E+01 0.000E+00 0.000E+00 0.231E+01 0.279E-01 0.190E+03 0.642E-03 0.992E-06 0.152E+01 0.159E+01 0.585E-10 0.981E-09 0.981E-09 0.981E-09 0.981E-09 0.196E-08 0.204E-02 0.119E-04 0.104E-03 .35348E-22 0.000E+00 0.179E+00 0.000E+00 0.000E+00 0.000E+00
BIGSUB    1        0   29.87822E+01 0.000E+00 0.000E+00 0.385E+01 0.961E-01 0.190E+03 0.827E-04 0.986E-06 0.148E+01 0.155E+01 0.454E-10 0.954E-09 0.954E-09 0.954E-09 0.954E-09 0.191E-08 0.155E-02 0.156E-04 0.122E-03 .34298E-22 0.000E+00 0.151E+00 0.000E+00 0.000E+00 0.000E+00
BIGSUB    2        0   29.53442E+01 0.000E+00 0.000E+00 0.385E+01 0.911E-01 0.183E+03 0.374E-05 0.992E-06 0.148E+01 0.155E+01 0.839E-10 0.962E-09 0.962E-09 0.962E-09 0.962E-09 0.192E-08 0.124E-02 0.191E-04 0.108E-02 .36898E-22 0.000E+00 0.151E+00 0.000E+00 0.000E+00 0.000E+00
BIGSUB    3        0   29.78363E+01 0.000E+00 0.000E+00 0.384E+01 0.314E-01 0.190E+03 0.355E-03 0.992E-06 0.150E+01 0.157E+01 0.585E-10 0.981E-09 0.981E-09 0.981E-09 0.981E-09 0.196E-08 0.170E-02 0.965E-05 0.994E-04 .36549E-22 0.000E+00 0.156E+00 0.000E+00 0.000E+00 0.000E+00
BIGSUB    1        0   30.87822E+01 0.200E+01 0.000E+00 0.540E+00 0.469E+00 0.190E+03 0.119E+01 0.274E-03 0.146E+01 0.155E+01 0.371E-05 0.465E-05 0.620E-06 0.199E-05 0.513E-07 0.110E-05 0.224E-01 0.198E-03 0.117E-03 .23791E-10 0.216E-05 0.150E+00 0.000E+00 0.000E+00 0.000E+00
BIGSUB    2        0   30.53442E+01 0.180E+01 0.000E+00 0.539E+00 0.461E+00 0.184E+03 0.100E+01 0.144E-03 0.146E+01 0.154E+01 0.154E-05 0.248E-05 0.337E-06 0.604E-05 0.310E-07 0.425E-06 0.199E-01 0.571E-03 0.104E-02 .15496E-10 0.108E-05 0.150E+00 0.000E+00 0.000E+00 0.000E+00
BIGSUB    3        0   30.78363E+01 0.130E+01 0.000E+00 0.524E+00 0.390E+00 0.190E+03 0.681E+00 0.939E-05 0.147E+01 0.156E+01 0.585E-10 0.981E-09 0.981E-09 0.357E-06 0.309E-08 0.196E-08 0.163E-01 0.656E-04 0.951E-04 .98231E-14 0.000E+00 0.154E+00 0.000E+00 0.000E+00 0.000E+00
BIGSUB    1        0   31.87822E+01 0.000E+00 0.000E+00 0.151E+01 0.178E+00 0.190E+03 0.591E-01 0.146E-05 0.143E+01 0.152E+01 0.454E-10 0.759E-08 0.183E-08 0.581E-08 0.103E-08 0.358E-08 0.161E-01 0.142E-03 0.112E-03 .75102E-18 0.000E+00 0.150E+00 0.000E+00 0.000E+00 0.000E+00
BIGSUB    2        0   31.53442E+01 0.000E+00 0.000E+00 0.150E+01 0.158E+00 0.183E+03 0.546E-01 0.111E-05 0.143E+01 0.151E+01 0.839E-10 0.139E-08 0.101E-08 0.623E-08 0.987E-09 0.202E-08 0.143E-01 0.407E-03 0.992E-03 .10819E-18 0.000E+00 0.150E+00 0.000E+00 0.000E+00 0.000E+00
BIGSUB    3        0   31.78363E+01 0.000E+00 0.000E+00 0.146E+01 0.641E-01 0.190E+03 0.538E-01 0.998E-06 0.144E+01 0.152E+01 0.585E-10 0.981E-09 0.981E-09 0.153E-08 0.982E-09 0.196E-08 0.118E-01 0.487E-04 0.909E-04 .27018E-21 0.000E+00 0.154E+00 0.000E+00 0.000E+00 0.000E+00
BIGSUB    1        0   32.87822E+01 0.000E+00 0.000E+00 0.298E+01 0.107E+00 0.190E+03 0.127E-01 0.986E-06 0.141E+01 0.149E+01 0.454E-10 0.954E-09 0.954E-09 0.973E-09 0.954E-09 0.191E-08 0.116E-01 0.101E-03 0.108E-03 .38024E-22 0.000E+00 0.151E+00 0.000E+00 0.000E+00 0.000E+00
BIGSUB    2        0   32.53442E+01 0.000E+00 0.000E+00 0.298E+01 0.962E-01 0.183E+03 0.124E-01 0.992E-06 0.141E+01 0.148E+01 0.839E-10 0.962E-09 0.962E-09 0.975E-09 0.962E-09 0.192E-08 0.103E-01 0.290E-03 0.949E-03 .40210E-22 0.000E+00 0.151E+00 0.000E+00 0.000E+00 0.000E+00
BIGSUB    3        0   32.78363E+01 0.000E+00 0.000E+00 0.295E+01 0.353E-01 0.190E+03 0.146E-01 0.992E-06 0.142E+01 0.150E+01 0.585E-10 0.981E-09 0.981E-09 0.982E-09 0.981E-09 0.196E-08 0.859E-02 0.365E-04 0.869E-04 .39976E-22 0.000E+00 0.155E+00 0.000E+00 0.000E+00 0.000E+00
BIGSUB    1        0   33.87822E+01 0.000E+00 0.000E+00 0.243E+01 0.977E-01 0.190E+03 0.419E-02 0.986E-06 0.138E+01 0.146E+01 0.454E-10 0.954E-09 0.954E-09 0.954E-09 0.954E-09 0.191E-08 0.834E-02 0.728E-04 0.103E-03 .38664E-22 0.000E+00 0.147E+00 0.000E+00 0.000E+00 0.000E+00
BIGSUB    2        0   33.53442E+01 0.000E+00 0.000E+00 0.243E+01 0.927E-01 0.183E+03 0.542E-02 0.992E-06 0.138E+01 0.146E+01 0.839E-10 0.962E-09 0.962E-09 0.962E-09 0.962E-09 0.192E-08 0.744E-02 0.207E-03 0.906E-03 .41622E-22 0.000E+00 0.146E+00 0.000E+00 0.000E+00 0.000E+00
BIGSUB    3        0   33.78363E+01 0.000E+00 0.000E+00 0.239E+01 0.319E-01 0.190E+03 0.649E-02 0.992E-06 0.139E+01 0.147E+01 0.585E-10 0.981E-09 0.981E-09 0.981E-09 0.981E-09 0.196E-08 0.631E-02 0.277E-04 0.829E-04 .41507E-22 0.000E+00 0.151E+00 0.000E+00 0.000E+00 0.000E+00
BIGSUB    1        0   34.87822E+01 0.000E+00 0.000E+00 0.675E+00 0.368E-01 0.190E+03 0.222E-02 0.986E-06 0.136E+01 0.143E+01 0.454E-10 0.954E-09 0.954E-09 0.954E-09 0.954E-09 0.191E-08 0.605E-02 0.525E-04 0.984E-04 .40155E-22 0.000E+00 0.143E+00 0.000E+00 0.000E+00 0.000E+00
BIGSUB    2        0   34.53442E+01 0.000E+00 0.000E+00 0.674E+00 0.349E-01 0.183E+03 0.289E-02 0.992E-06 0.136E+01 0.143E+01 0.839E-10 0.962E-09 0.962E-09 0.962E-09 0.962E-09 0.192E-08 0.541E-02 0.148E-03 0.865E-03 .43211E-22 0.000E+00 0.143E+00 0.000E+00 0.000E+00 0.000E+00
BIGSUB    3        0   34.78363E+01 0.000E+00 0.000E+00 0.654E+00 0.120E-01 0.190E+03 0.343E-02 0.992E-06 0.137E+01 0.144E+01 0.585E-10 0.981E-09 0.981E-09 0.981E-09 0.981E-09 0.196E-08 0.467E-02 0.213E-04 0.791E-04 .43109E-22 0.000E+00 0.147E+00 0.000E+00 0.000E+00 0.000E+00
BIGSUB    1        0   35.87822E+01 0.150E+01 0.000E+00 0.255E+01 0.186E+01 0.189E+03 0.820E+00 0.696E-04 0.133E+01 0.142E+01 0.793E-06 0.987E-06 0.132E-06 0.436E-06 0.136E-07 0.237E-06 0.200E-01 0.167E-03 0.942E-04 .39531E-12 0.129E-06 0.144E+00 0.000E+00 0.000E+00 0.000E+00
BIGSUB    2        0   35.53442E+01 0.150E+01 0.000E+00 0.255E+01 0.177E+01 0.182E+03 0.843E+00 0.564E-04 0.133E+01 0.142E+01 0.490E-06 0.823E-06 0.112E-06 0.177E-05 0.122E-07 0.129E-06 0.194E-01 0.550E-03 0.828E-03 .86377E-12 0.164E-06 0.143E+00 0.000E+00 0.000E+00 0.000E+00
BIGSUB    3        0   35.78363E+01 0.130E+01 0.000E+00 0.252E+01 0.166E+01 0.189E+03 0.722E+00 0.939E-05 0.134E+01 0.143E+01 0.585E-10 0.981E-09 0.981E-09 0.317E-06 0.305E-08 0.196E-08 0.180E-01 0.683E-04 0.757E-04 .10354E-13 0.000E+00 0.147E+00 0.000E+00 0.000E+00 0.000E+00
BIGSUB    1        0   36.87822E+01 0.000E+00 0.000E+00 0.309E+01 0.103E+00 0.189E+03 0.450E-01 0.109E-05 0.131E+01 0.139E+01 0.454E-10 0.239E-08 0.113E-08 0.194E-08 0.962E-09 0.225E-08 0.143E-01 0.119E-03 0.902E-04 .10285E-19 0.000E+00 0.147E+00 0.000E+00 0.000E+00 0.000E+00
BIGSUB    2        0   36.53442E+01 0.000E+00 0.000E+00 0.309E+01 0.936E-01 0.182E+03 0.488E-01 0.103E-05 0.131E+01 0.139E+01 0.839E-10 0.985E-09 0.962E-09 0.253E-08 0.967E-09 0.192E-08 0.139E-01 0.392E-03 0.793E-03 .59363E-20 0.000E+00 0.147E+00 0.000E+00 0.000E+00 0.000E+00
BIGSUB    3        0   36.78363E+01 0.000E+00 0.000E+00 0.307E+01 0.447E-01 0.189E+03 0.649E-01 0.998E-06 0.132E+01 0.140E+01 0.585E-10 0.981E-09 0.981E-09 0.145E-08 0.982E-09 0.196E-08 0.130E-01 0.508E-04 0.723E-04 .26177E-21 0.000E+00 0.151E+00 0.000E+00 0.000E+00 0.000E+00
BIGSUB    1        0   37.87822E+01 0.165E+02 0.000E+00 0.125E+01 0.101E+01 0.191E+03 0.110E+02 0.209E+01 0.130E+01 0.366E+01 0.912E-01 0.101E+00 0.162E-01 0.176E-01 0.135E-02 0.318E-01 0.204E+00 0.129E-02 0.910E-04 .23800E-02 0.290E+01 0.198E+00 0.000E+00 0.000E+00 0.000E+00
BIGSUB    2        0   37.53442E+01 0.178E+02 0.000E+00 0.125E+01 0.922E+00 0.184E+03 0.120E+02 0.230E+01 0.130E+01 0.388E+01 0.944E-01 0.112E+00 0.186E-01 0.302E-01 0.135E-02 0.346E-01 0.218E+00 0.567E-02 0.810E-03 .31075E-02 0.307E+01 0.213E+00 0.000E+00 0.000E+00 0.000E+00
BIGSUB    3        0   37.78363E+01 0.208E+02 0.000E+00 0.126E+01 0.869E+00 0.192E+03 0.126E+02 0.363E+01 0.131E+01 0.526E+01 0.354E+00 0.236E+00 0.343E-01 0.145E-01 0.104E-02 0.655E-01 0.249E+00 0.737E-03 0.746E-04 .63046E-02 0.120E+02 0.242E+00 0.000E+00 0.000E+00 0.000E+00
BIGSUB    1        0   38.87822E+01 0.800E+00 0.000E+00 0.262E+00 0.106E+00 0.191E+03 0.626E+00 0.374E-01 0.129E+01 0.154E+01 0.454E-10 0.183E-02 0.301E-03 0.387E-03 0.308E-04 0.649E-03 0.147E+00 0.925E-03 0.915E-04 .27350E-06 0.000E+00 0.170E+00 0.000E+00 0.000E+00 0.000E+00
BIGSUB    2        0   38.53442E+01 0.500E+00 0.000E+00 0.262E+00 0.125E+00 0.184E+03 0.652E+00 0.221E-01 0.129E+01 0.154E+01 0.839E-10 0.115E-02 0.189E-03 0.379E-03 0.152E-04 0.397E-03 0.156E+00 0.403E-02 0.821E-03 .10375E-06 0.000E+00 0.169E+00 0.000E+00 0.000E+00 0.000E+00
BIGSUB    3        0   38.78363E+01 0.800E+00 0.000E+00 0.255E+00 0.145E+00 0.191E+03 0.129E+01 0.361E-01 0.130E+01 0.159E+01 0.585E-10 0.244E-02 0.323E-03 0.101E-03 0.784E-05 0.821E-03 0.181E+00 0.548E-03 0.768E-04 .40198E-06 0.000E+00 0.178E+00 0.000E+00 0.000E+00 0.000E+00
BIGSUB    1        0   39.87822E+01 0.000E+00 0.000E+00 0.194E+01 0.827E-01 0.190E+03 0.164E+00 0.108E-02 0.128E+01 0.146E+01 0.454E-10 0.531E-04 0.880E-05 0.115E-04 0.920E-06 0.191E-04 0.105E+00 0.659E-03 0.915E-04 .95523E-11 0.000E+00 0.158E+00 0.000E+00 0.000E+00 0.000E+00
BIGSUB    2        0   39.53442E+01 0.000E+00 0.000E+00 0.194E+01 0.686E-01 0.184E+03 0.172E+00 0.340E-03 0.128E+01 0.146E+01 0.839E-10 0.181E-04 0.304E-05 0.629E-05 0.249E-06 0.644E-05 0.111E+00 0.286E-02 0.826E-03 .68287E-12 0.000E+00 0.159E+00 0.000E+00 0.000E+00 0.000E+00
BIGSUB    3        0   39.78363E+01 0.000E+00 0.000E+00 0.192E+01 0.622E-01 0.191E+03 0.428E+00 0.645E-03 0.129E+01 0.149E+01 0.585E-10 0.450E-04 0.591E-05 0.157E-05 0.132E-06 0.156E-04 0.129E+00 0.403E-03 0.783E-04 .41623E-11 0.000E+00 0.165E+00 0.000E+00 0.000E+00 0.000E+00
BIGSUB    1        0   40.87822E+01 0.500E+00 0.000E+00 0.166E+01 0.137E+01 0.189E+03 0.178E+00 0.335E-04 0.127E+01 0.142E+01 0.454E-10 0.162E-05 0.270E-06 0.353E-06 0.288E-07 0.584E-06 0.779E-01 0.494E-03 0.910E-04 .29841E-15 0.000E+00 0.149E+00 0.000E+00 0.000E+00 0.000E+00
BIGSUB    2        0   40.53442E+01 0.800E+00 0.000E+00 0.165E+01 0.134E+01 0.183E+03 0.290E+00 0.648E-05 0.127E+01 0.142E+01 0.839E-10 0.316E-06 0.536E-07 0.112E-06 0.504E-08 0.114E-06 0.845E-01 0.208E-02 0.826E-03 .44573E-17 0.000E+00 0.150E+00 0.000E+00 0.000E+00 0.000E+00
BIGSUB    3        0   40.78363E+01 0.500E+00 0.000E+00 0.163E+01 0.126E+01 0.190E+03 0.304E+00 0.134E-04 0.129E+01 0.145E+01 0.585E-10 0.897E-06 0.118E-06 0.305E-07 0.325E-08 0.316E-06 0.963E-01 0.309E-03 0.793E-04 .38586E-16 0.000E+00 0.156E+00 0.000E+00 0.000E+00 0.000E+00
BIGSUB    1        0   41.87822E+01 0.430E+01 0.000E+00 0.239E+01 0.139E+01 0.190E+03 0.260E+01 0.622E-02 0.126E+01 0.144E+01 0.163E-03 0.278E-03 0.382E-04 0.760E-04 0.283E-05 0.627E-04 0.103E+00 0.635E-03 0.912E-04 .25384E-06 0.125E-02 0.146E+00 0.000E+00 0.000E+00 0.000E+00
BIGSUB    2        0   41.53442E+01 0.480E+01 0.000E+00 0.239E+01 0.150E+01 0.183E+03 0.308E+01 0.953E-02 0.127E+01 0.146E+01 0.215E-03 0.385E-03 0.529E-04 0.195E-03 0.417E-05 0.723E-04 0.114E+00 0.280E-02 0.834E-03 .79220E-06 0.210E-02 0.147E+00 0.000E+00 0.000E+00 0.000E+00
BIGSUB    3        0   41.78363E+01 0.690E+01 0.000E+00 0.235E+01 0.168E+01 0.190E+03 0.470E+01 0.783E-01 0.128E+01 0.158E+01 0.499E-02 0.412E-02 0.610E-03 0.588E-03 0.245E-04 0.946E-03 0.155E+00 0.474E-03 0.816E-04 .20342E-04 0.782E-01 0.159E+00 0.000E+00 0.000E+00 0.000E+00
BIGSUB    1        0   42.87822E+01 0.000E+00 0.000E+00 0.242E+01 0.109E+00 0.189E+03 0.154E+00 0.238E-04 0.125E+01 0.139E+01 0.454E-10 0.111E-05 0.160E-06 0.323E-06 0.120E-07 0.267E-06 0.733E-01 0.454E-03 0.908E-04 .57827E-13 0.000E+00 0.150E+00 0.000E+00 0.000E+00 0.000E+00
BIGSUB    2        0   42.53442E+01 0.000E+00 0.000E+00 0.242E+01 0.102E+00 0.183E+03 0.190E+00 0.325E-04 0.126E+01 0.141E+01 0.839E-10 0.131E-05 0.177E-06 0.788E-06 0.136E-07 0.254E-06 0.816E-01 0.199E-02 0.836E-03 .26110E-12 0.000E+00 0.151E+00 0.000E+00 0.000E+00 0.000E+00
BIGSUB    3        0   42.78363E+01 0.000E+00 0.000E+00 0.237E+01 0.421E-01 0.189E+03 0.472E+00 0.435E-03 0.128E+01 0.146E+01 0.585E-10 0.211E-04 0.278E-05 0.250E-05 0.977E-07 0.589E-05 0.112E+00 0.351E-03 0.834E-04 .52815E-11 0.000E+00 0.160E+00 0.000E+00 0.000E+00 0.000E+00
BIGSUB    1        0   43.87822E+01 0.000E+00 0.000E+00 0.328E+01 0.118E+00 0.189E+03 0.403E-01 0.106E-05 0.124E+01 0.136E+01 0.454E-10 0.668E-08 0.174E-08 0.259E-08 0.988E-09 0.320E-08 0.524E-01 0.326E-03 0.900E-04 .11325E-19 0.000E+00 0.138E+00 0.000E+00 0.000E+00 0.000E+00
BIGSUB    2        0   43.53442E+01 0.000E+00 0.000E+00 0.328E+01 0.109E+00 0.183E+03 0.526E-01 0.111E-05 0.125E+01 0.137E+01 0.839E-10 0.839E-08 0.191E-08 0.500E-08 0.995E-09 0.326E-08 0.586E-01 0.142E-02 0.833E-03 .50432E-19 0.000E+00 0.139E+00 0.000E+00 0.000E+00 0.000E+00
BIGSUB    3        0   43.78363E+01 0.000E+00 0.000E+00 0.324E+01 0.475E-01 0.189E+03 0.159E+00 0.621E-05 0.127E+01 0.142E+01 0.585E-10 0.264E-06 0.351E-07 0.247E-07 0.173E-08 0.855E-07 0.804E-01 0.263E-03 0.845E-04 .24286E-17 0.000E+00 0.147E+00 0.000E+00 0.000E+00 0.000E+00
BIGSUB    1        0   44.87822E+01 0.000E+00 0.000E+00 0.345E+01 0.115E+00 0.189E+03 0.133E-01 0.986E-06 0.123E+01 0.134E+01 0.454E-10 0.966E-09 0.954E-09 0.955E-09 0.954E-09 0.191E-08 0.376E-01 0.234E-03 0.888E-04 .46115E-22 0.000E+00 0.133E+00 0.000E+00 0.000E+00 0.000E+00
BIGSUB    2        0   44.53442E+01 0.000E+00 0.000E+00 0.344E+01 0.114E+00 0.183E+03 0.218E-01 0.992E-06 0.124E+01 0.135E+01 0.839E-10 0.984E-09 0.962E-09 0.971E-09 0.962E-09 0.192E-08 0.422E-01 0.101E-02 0.826E-03 .49500E-22 0.000E+00 0.135E+00 0.000E+00 0.000E+00 0.000E+00
BIGSUB    3        0   44.78363E+01 0.000E+00 0.000E+00 0.341E+01 0.499E-01 0.189E+03 0.675E-01 0.992E-06 0.127E+01 0.139E+01 0.585E-10 0.519E-08 0.126E-08 0.104E-08 0.981E-09 0.309E-08 0.582E-01 0.199E-03 0.849E-04 .15476E-21 0.000E+00 0.142E+00 0.000E+00 0.000E+00 0.000E+00
BIGSUB    1        0   45.87822E+01 0.000E+00 0.000E+00 0.351E+01 0.868E-01 0.189E+03 0.714E-02 0.986E-06 0.122E+01 0.131E+01 0.454E-10 0.954E-09 0.954E-09 0.954E-09 0.954E-09 0.191E-08 0.272E-01 0.169E-03 0.872E-04 .46979E-22 0.000E+00 0.129E+00 0.000E+00 0.000E+00 0.000E+00
BIGSUB    2        0   45.53442E+01 0.000E+00 0.000E+00 0.351E+01 0.823E-01 0.182E+03 0.115E-01 0.992E-06 0.123E+01 0.133E+01 0.839E-10 0.962E-09 0.962E-09 0.962E-09 0.962E-09 0.192E-08 0.306E-01 0.722E-03 0.815E-03 .48777E-22 0.000E+00 0.130E+00 0.000E+00 0.000E+00 0.000E+00
BIGSUB    3        0   45.78363E+01 0.000E+00 0.000E+00 0.350E+01 0.284E-01 0.189E+03 0.326E-01 0.992E-06 0.126E+01 0.137E+01 0.585E-10 0.981E-09 0.981E-09 0.981E-09 0.981E-09 0.196E-08 0.423E-01 0.152E-03 0.847E-04 .46605E-22 0.000E+00 0.137E+00 0.000E+00 0.000E+00 0.000E+00
BIGSUB    1        0   46.87822E+01 0.000E+00 0.000E+00 0.333E+01 0.112E+00 0.189E+03 0.392E-02 0.986E-06 0.120E+01 0.129E+01 0.454E-10 0.954E-09 0.954E-09 0.954E-09 0.954E-09 0.191E-08 0.197E-01 0.123E-03 0.854E-04 .48444E-22 0.000E+00 0.119E+00 0.000E+00 0.000E+00 0.000E+00
BIGSUB    2        0   46.53442E+01 0.000E+00 0.000E+00 0.333E+01 0.106E+00 0.182E+03 0.633E-02 0.992E-06 0.122E+01 0.130E+01 0.839E-10 0.962E-09 0.962E-09 0.962E-09 0.962E-09 0.192E-08 0.223E-01 0.517E-03 0.800E-03 .50205E-22 0.000E+00 0.120E+00 0.000E+00 0.000E+00 0.000E+00
BIGSUB    3        0   46.78363E+01 0.000E+00 0.000E+00 0.329E+01 0.367E-01 0.189E+03 0.179E-01 0.992E-06 0.125E+01 0.135E+01 0.585E-10 0.981E-09 0.981E-09 0.981E-09 0.981E-09 0.196E-08 0.310E-01 0.118E-03 0.841E-04 .47964E-22 0.000E+00 0.126E+00 0.000E+00 0.000E+00 0.000E+00
BIGSUB    1        0   47.87822E+01 0.305E+02 0.000E+00 0.312E+01 0.190E+01 0.190E+03 0.178E+02 0.869E+01 0.121E+01 0.103E+02 0.423E+00 0.441E+00 0.703E-01 0.399E-01 0.489E-02 0.147E+00 0.328E+00 0.193E-02 0.923E-04 .15082E-01 0.149E+02 0.320E+00 0.000E+00 0.000E+00 0.000E+00
BIGSUB    2        0   47.53442E+01 0.300E+02 0.000E+00 0.312E+01 0.193E+01 0.183E+03 0.181E+02 0.773E+01 0.123E+01 0.935E+01 0.371E+00 0.396E+00 0.648E-01 0.426E-01 0.406E-02 0.129E+00 0.330E+00 0.787E-02 0.861E-03 .13632E-01 0.130E+02 0.332E+00 0.000E+00 0.000E+00 0.000E+00
BIGSUB    3        0   47.78363E+01 0.302E+02 0.000E+00 0.317E+01 0.200E+01 0.191E+03 0.164E+02 0.826E+01 0.126E+01 0.992E+01 0.857E+00 0.543E+00 0.781E-01 0.226E-01 0.236E-02 0.155E+00 0.332E+00 0.103E-02 0.917E-04 .17602E-01 0.308E+02 0.331E+00 0.000E+00 0.000E+00 0.000E+00
BIGSUB    1        0   48.87822E+01 0.300E+00 0.000E+00 0.462E+00 0.646E-01 0.190E+03 0.959E+00 0.150E+00 0.122E+01 0.168E+01 0.454E-10 0.841E-02 0.138E-02 0.830E-03 0.104E-03 0.311E-02 0.234E+00 0.138E-02 0.983E-04 .13072E-04 0.000E+00 0.182E+00 0.000E+00 0.000E+00 0.000E+00
BIGSUB    2        0   48.53442E+01 0.300E+00 0.000E+00 0.461E+00 0.525E-01 0.183E+03 0.971E+00 0.721E-01 0.124E+01 0.161E+01 0.839E-10 0.412E-02 0.676E-03 0.491E-03 0.440E-04 0.149E-02 0.236E+00 0.559E-02 0.911E-03 .24398E-05 0.000E+00 0.176E+00 0.000E+00 0.000E+00 0.000E+00
BIGSUB    3        0   48.78363E+01 0.000E+00 0.000E+00 0.445E+00 0.105E-01 0.190E+03 0.160E+01 0.799E-01 0.127E+01 0.166E+01 0.585E-10 0.569E-02 0.750E-03 0.188E-03 0.174E-04 0.192E-02 0.238E+00 0.753E-03 0.987E-04 .36149E-05 0.000E+00 0.184E+00 0.000E+00 0.000E+00 0.000E+00
BIGSUB    1        0   49.87822E+01 0.000E+00 0.000E+00 0.131E+01 0.721E-01 0.189E+03 0.267E+00 0.432E-02 0.123E+01 0.147E+01 0.454E-10 0.246E-03 0.405E-04 0.244E-04 0.309E-05 0.918E-04 0.167E+00 0.984E-03 0.103E-03 .62836E-09 0.000E+00 0.159E+00 0.000E+00 0.000E+00 0.000E+00
BIGSUB    2        0   49.53442E+01 0.000E+00 0.000E+00 0.131E+01 0.670E-01 0.182E+03 0.261E+00 0.110E-02 0.125E+01 0.149E+01 0.839E-10 0.657E-04 0.109E-04 0.797E-05 0.710E-06 0.241E-04 0.168E+00 0.396E-02 0.951E-03 .20021E-10 0.000E+00 0.160E+00 0.000E+00 0.000E+00 0.000E+00
BIGSUB    3        0   49.78363E+01 0.000E+00 0.000E+00 0.128E+01 0.270E-01 0.189E+03 0.561E+00 0.141E-02 0.128E+01 0.152E+01 0.585E-10 0.105E-03 0.138E-04 0.313E-05 0.289E-06 0.366E-04 0.171E+00 0.554E-03 0.105E-03 .43645E-10 0.000E+00 0.168E+00 0.000E+00 0.000E+00 0.000E+00
BIGSUB    1        0   50.87822E+01 0.000E+00 0.000E+00 0.219E+01 0.113E+00 0.189E+03 0.113E+00 0.132E-03 0.124E+01 0.142E+01 0.454E-10 0.754E-05 0.124E-05 0.750E-06 0.954E-07 0.281E-05 0.119E+00 0.703E-03 0.107E-03 .19980E-13 0.000E+00 0.146E+00 0.000E+00 0.000E+00 0.000E+00
BIGSUB    2        0   50.53442E+01 0.000E+00 0.000E+00 0.219E+01 0.105E+00 0.182E+03 0.117E+00 0.194E-04 0.126E+01 0.144E+01 0.839E-10 0.115E-05 0.192E-06 0.141E-06 0.131E-07 0.424E-06 0.121E+00 0.282E-02 0.980E-03 .13272E-15 0.000E+00 0.148E+00 0.000E+00 0.000E+00 0.000E+00
BIGSUB    3        0   50.78363E+01 0.300E+00 0.000E+00 0.213E+01 0.175E+00 0.189E+03 0.261E+00 0.286E-04 0.129E+01 0.148E+01 0.585E-10 0.210E-05 0.275E-06 0.616E-07 0.626E-08 0.739E-06 0.123E+00 0.413E-03 0.109E-03 .40791E-15 0.000E+00 0.155E+00 0.000E+00 0.000E+00 0.000E+00
BIGSUB    1        0   51.87822E+01 0.000E+00 0.000E+00 0.123E+01 0.500E-01 0.189E+03 0.505E-01 0.465E-05 0.124E+01 0.139E+01 0.454E-10 0.233E-06 0.388E-07 0.237E-07 0.350E-08 0.878E-07 0.851E-01 0.504E-03 0.110E-03 .61625E-18 0.000E+00 0.137E+00 0.000E+00 0.000E+00 0.000E+00
BIGSUB    2        0   51.53442E+01 0.000E+00 0.000E+00 0.123E+01 0.461E-01 0.182E+03 0.576E-01 0.106E-05 0.126E+01 0.141E+01 0.839E-10 0.212E-07 0.413E-08 0.323E-08 0.962E-09 0.897E-08 0.867E-01 0.200E-02 0.100E-02 .90583E-21 0.000E+00 0.140E+00 0.000E+00 0.000E+00 0.000E+00
BIGSUB    3        0   51.78363E+01 0.000E+00 0.000E+00 0.121E+01 0.197E-01 0.189E+03 0.125E+00 0.127E-05 0.130E+01 0.145E+01 0.585E-10 0.434E-07 0.627E-08 0.193E-08 0.981E-09 0.165E-07 0.892E-01 0.310E-03 0.113E-03 .37800E-20 0.000E+00 0.146E+00 0.000E+00 0.000E+00 0.000E+00
BIGSUB    1        0   52.87822E+01 0.000E+00 0.000E+00 0.813E+00 0.502E-01 0.189E+03 0.234E-01 0.986E-06 0.124E+01 0.137E+01 0.454E-10 0.774E-08 0.175E-08 0.128E-08 0.954E-09 0.395E-08 0.612E-01 0.363E-03 0.111E-03 .21182E-21 0.000E+00 0.129E+00 0.000E+00 0.000E+00 0.000E+00
BIGSUB    2        0   52.53442E+01 0.000E+00 0.000E+00 0.810E+00 0.467E-01 0.182E+03 0.294E-01 0.992E-06 0.126E+01 0.139E+01 0.839E-10 0.108E-08 0.962E-09 0.962E-09 0.962E-09 0.192E-08 0.626E-01 0.143E-02 0.101E-02 .46998E-22 0.000E+00 0.131E+00 0.000E+00 0.000E+00 0.000E+00
BIGSUB    3        0   52.78363E+01 0.000E+00 0.000E+00 0.783E+00 0.185E-01 0.189E+03 0.628E-01 0.992E-06 0.130E+01 0.143E+01 0.585E-10 0.157E-08 0.981E-09 0.981E-09 0.981E-09 0.197E-08 0.649E-01 0.235E-03 0.115E-03 .56077E-22 0.000E+00 0.138E+00 0.000E+00 0.000E+00 0.000E+00
BIGSUB    1        0   53.87822E+01 0.224E+02 0.000E+00 0.113E+01 0.950E+00 0.191E+03 0.142E+02 0.444E+01 0.126E+01 0.607E+01 0.214E+00 0.223E+00 0.353E-01 0.279E-01 0.240E-02 0.748E-01 0.294E+00 0.161E-02 0.120E-03 .66236E-02 0.721E+01 0.216E+00 0.000E+00 0.000E+00 0.000E+00
BIGSUB    2        0   53.53442E+01 0.173E+02 0.000E+00 0.113E+01 0.751E+00 0.184E+03 0.118E+02 0.214E+01 0.128E+01 0.374E+01 0.923E-01 0.106E+00 0.172E-01 0.213E-01 0.110E-02 0.341E-01 0.249E+00 0.536E-02 0.107E-02 .26871E-02 0.294E+01 0.184E+00 0.000E+00 0.000E+00 0.000E+00
BIGSUB    3        0   53.78363E+01 0.191E+02 0.000E+00 0.113E+01 0.659E+00 0.192E+03 0.116E+02 0.295E+01 0.132E+01 0.460E+01 0.288E+00 0.185E+00 0.263E-01 0.118E-01 0.816E-03 0.520E-01 0.267E+00 0.806E-03 0.123E-03 .45540E-02 0.944E+01 0.201E+00 0.000E+00 0.000E+00 0.000E+00
BIGSUB    1        0   54.87822E+01 0.300E+00 0.000E+00 0.341E+01 0.317E+00 0.190E+03 0.779E+00 0.788E-01 0.128E+01 0.163E+01 0.454E-10 0.422E-02 0.689E-03 0.595E-03 0.523E-04 0.158E-02 0.210E+00 0.115E-02 0.128E-03 .22255E-05 0.000E+00 0.166E+00 0.000E+00 0.000E+00 0.000E+00
BIGSUB    2        0   54.53442E+01 0.500E+00 0.000E+00 0.340E+01 0.839E+00 0.183E+03 0.657E+00 0.206E-01 0.129E+01 0.156E+01 0.839E-10 0.109E-02 0.179E-03 0.245E-03 0.121E-04 0.395E-03 0.179E+00 0.382E-02 0.112E-02 .76235E-07 0.000E+00 0.158E+00 0.000E+00 0.000E+00 0.000E+00
BIGSUB    3        0   54.78363E+01 0.500E+00 0.000E+00 0.336E+01 0.986E+00 0.190E+03 0.115E+01 0.292E-01 0.133E+01 0.162E+01 0.585E-10 0.192E-02 0.253E-03 0.944E-04 0.618E-05 0.646E-03 0.193E+00 0.596E-03 0.130E-03 .20305E-06 0.000E+00 0.168E+00 0.000E+00 0.000E+00 0.000E+00
BIGSUB    1        0   55.87822E+01 0.000E+00 0.000E+00 0.273E+01 0.130E+00 0.190E+03 0.212E+00 0.227E-02 0.129E+01 0.151E+01 0.454E-10 0.123E-03 0.202E-04 0.176E-04 0.155E-05 0.467E-04 0.150E+00 0.821E-03 0.135E-03 .86841E-10 0.000E+00 0.150E+00 0.000E+00 0.000E+00 0.000E+00
BIGSUB    2        0   55.53442E+01 0.000E+00 0.000E+00 0.273E+01 0.120E+00 0.183E+03 0.171E+00 0.316E-03 0.131E+01 0.150E+01 0.839E-10 0.173E-04 0.287E-05 0.396E-05 0.197E-06 0.641E-05 0.129E+00 0.271E-02 0.115E-02 .48736E-12 0.000E+00 0.149E+00 0.000E+00 0.000E+00 0.000E+00
BIGSUB    3        0   55.78363E+01 0.000E+00 0.000E+00 0.267E+01 0.498E-01 0.190E+03 0.391E+00 0.522E-03 0.135E+01 0.155E+01 0.585E-10 0.352E-04 0.461E-05 0.155E-05 0.104E-06 0.122E-04 0.139E+00 0.441E-03 0.136E-03 .19824E-11 0.000E+00 0.158E+00 0.000E+00 0.000E+00 0.000E+00
BIGSUB    1        0   56.87822E+01 0.000E+00 0.000E+00 0.262E+01 0.114E+00 0.190E+03 0.876E-01 0.700E-04 0.130E+01 0.148E+01 0.454E-10 0.377E-05 0.620E-06 0.539E-06 0.483E-07 0.143E-05 0.107E+00 0.589E-03 0.140E-03 .26994E-14 0.000E+00 0.139E+00 0.000E+00 0.000E+00 0.000E+00
BIGSUB    2        0   56.53442E+01 0.000E+00 0.000E+00 0.261E+01 0.105E+00 0.183E+03 0.751E-01 0.608E-05 0.131E+01 0.147E+01 0.839E-10 0.302E-06 0.508E-07 0.703E-07 0.412E-08 0.114E-06 0.925E-01 0.193E-02 0.118E-02 .31304E-17 0.000E+00 0.139E+00 0.000E+00 0.000E+00 0.000E+00
BIGSUB    3        0   56.78363E+01 0.000E+00 0.000E+00 0.257E+01 0.442E-01 0.190E+03 0.176E+00 0.110E-04 0.136E+01 0.152E+01 0.585E-10 0.701E-06 0.922E-07 0.305E-07 0.270E-08 0.248E-06 0.101E+00 0.330E-03 0.141E-03 .18021E-16 0.000E+00 0.147E+00 0.000E+00 0.000E+00 0.000E+00
BIGSUB    1        0   57.87822E+01 0.860E+01 0.000E+00 0.167E+01 0.106E+01 0.190E+03 0.663E+01 0.242E+00 0.132E+01 0.182E+01 0.107E-01 0.111E-01 0.171E-02 0.234E-02 0.118E-03 0.334E-02 0.192E+00 0.102E-02 0.147E-03 .86355E-04 0.215E+00 0.155E+00 0.000E+00 0.000E+00 0.000E+00
BIGSUB    2        0   57.53442E+01 0.890E+01 0.000E+00 0.166E+01 0.938E+00 0.184E+03 0.673E+01 0.250E+00 0.133E+01 0.183E+01 0.852E-02 0.111E-01 0.177E-02 0.308E-02 0.125E-03 0.323E-02 0.181E+00 0.383E-02 0.123E-02 .92890E-04 0.177E+00 0.155E+00 0.000E+00 0.000E+00 0.000E+00
BIGSUB    3        0   57.78363E+01 0.970E+01 0.000E+00 0.164E+01 0.119E+01 0.190E+03 0.680E+01 0.392E+00 0.137E+01 0.203E+01 0.314E-01 0.218E-01 0.311E-02 0.203E-02 0.112E-03 0.577E-02 0.196E+00 0.580E-03 0.148E-03 .18898E-03 0.633E+00 0.164E+00 0.000E+00 0.000E+00 0.000E+00
BIGSUB    1        0   58.87822E+01 0.152E+02 0.000E+00 0.251E+01 0.149E+01 0.190E+03 0.113E+02 0.172E+01 0.135E+01 0.346E+01 0.690E-01 0.834E-01 0.131E-01 0.576E-02 0.891E-03 0.277E-01 0.327E+00 0.166E-02 0.161E-03 .15296E-02 0.197E+01 0.205E+00 0.000E+00 0.000E+00 0.000E+00
BIGSUB    2        0   58.53442E+01 0.155E+02 0.000E+00 0.252E+01 0.158E+01 0.183E+03 0.117E+02 0.164E+01 0.136E+01 0.339E+01 0.616E-01 0.808E-01 0.131E-01 0.634E-02 0.843E-03 0.261E-01 0.323E+00 0.638E-02 0.133E-02 .15348E-02 0.176E+01 0.212E+00 0.000E+00 0.000E+00 0.000E+00
BIGSUB    3        0   58.78363E+01 0.163E+02 0.000E+00 0.255E+01 0.177E+01 0.191E+03 0.113E+02 0.203E+01 0.140E+01 0.384E+01 0.162E+00 0.124E+00 0.176E-01 0.522E-02 0.565E-03 0.348E-01 0.340E+00 0.974E-03 0.161E-03 .23982E-02 0.475E+01 0.226E+00 0.000E+00 0.000E+00 0.000E+00
BIGSUB    1        0   59.87822E+01 0.000E+00 0.000E+00 0.151E+01 0.888E-01 0.190E+03 0.674E+00 0.304E-01 0.138E+01 0.171E+01 0.454E-10 0.152E-02 0.247E-03 0.112E-03 0.193E-04 0.576E-03 0.233E+00 0.119E-02 0.173E-03 .11030E-06 0.000E+00 0.175E+00 0.000E+00 0.000E+00 0.000E+00
BIGSUB    2        0   59.53442E+01 0.000E+00 0.000E+00 0.151E+01 0.832E-01 0.183E+03 0.716E+00 0.157E-01 0.139E+01 0.170E+01 0.839E-10 0.828E-03 0.135E-03 0.676E-04 0.925E-05 0.301E-03 0.231E+00 0.454E-02 0.141E-02 .25056E-07 0.000E+00 0.174E+00 0.000E+00 0.000E+00 0.000E+00
BIGSUB    3        0   59.78363E+01 0.000E+00 0.000E+00 0.146E+01 0.346E-01 0.190E+03 0.125E+01 0.199E-01 0.143E+01 0.176E+01 0.585E-10 0.126E-02 0.166E-03 0.467E-04 0.419E-05 0.424E-03 0.244E+00 0.714E-03 0.173E-03 .51231E-07 0.000E+00 0.184E+00 0.000E+00 0.000E+00 0.000E+00
BIGSUB    1        0   60.87822E+01 0.239E+02 0.000E+00 0.249E+01 0.167E+01 0.190E+03 0.152E+02 0.519E+01 0.142E+01 0.711E+01 0.259E+00 0.251E+00 0.381E-01 0.157E-01 0.229E-02 0.838E-01 0.431E+00 0.211E-02 0.195E-03 .69927E-02 0.852E+01 0.288E+00 0.000E+00 0.000E+00 0.000E+00
BIGSUB    2        0   60.53442E+01 0.224E+02 0.000E+00 0.249E+01 0.160E+01 0.184E+03 0.148E+02 0.406E+01 0.143E+01 0.598E+01 0.194E+00 0.198E+00 0.309E-01 0.156E-01 0.180E-02 0.643E-01 0.417E+00 0.732E-02 0.155E-02 .53317E-02 0.630E+01 0.282E+00 0.000E+00 0.000E+00 0.000E+00
BIGSUB    3        0   60.78363E+01 0.252E+02 0.000E+00 0.254E+01 0.175E+01 0.192E+03 0.148E+02 0.568E+01 0.147E+01 0.767E+01 0.586E+00 0.359E+00 0.507E-01 0.143E-01 0.157E-02 0.103E+00 0.448E+00 0.130E-02 0.194E-03 .10008E-01 0.200E+02 0.320E+00 0.000E+00 0.000E+00 0.000E+00
BIGSUB    1        0   61.87822E+01 0.100E+01 0.000E+00 0.908E+00 0.446E+00 0.190E+03 0.940E+00 0.914E-01 0.146E+01 0.193E+01 0.454E-10 0.469E-02 0.722E-03 0.299E-03 0.468E-04 0.174E-02 0.310E+00 0.152E-02 0.214E-03 .21866E-05 0.000E+00 0.192E+00 0.000E+00 0.000E+00 0.000E+00
BIGSUB    2        0   61.53442E+01 0.230E+01 0.000E+00 0.906E+00 0.757E+00 0.184E+03 0.143E+01 0.390E-01 0.147E+01 0.189E+01 0.839E-10 0.204E-02 0.316E-03 0.172E-03 0.185E-04 0.725E-03 0.314E+00 0.539E-02 0.167E-02 .26838E-06 0.531E-11 0.188E+00 0.000E+00 0.000E+00 0.000E+00
BIGSUB    3        0   61.78363E+01 0.330E+01 0.000E+00 0.883E+00 0.681E+00 0.191E+03 0.284E+01 0.561E-01 0.152E+01 0.199E+01 0.585E-10 0.380E-02 0.498E-03 0.135E-03 0.117E-04 0.128E-02 0.350E+00 0.102E-02 0.214E-03 .84123E-06 0.252E-10 0.202E+00 0.000E+00 0.000E+00 0.000E+00
BIGSUB    1        0   62.87822E+01 0.380E+01 0.000E+00 0.126E+01 0.969E+00 0.190E+03 0.254E+01 0.584E-02 0.150E+01 0.184E+01 0.880E-04 0.271E-03 0.398E-04 0.312E-04 0.224E-05 0.841E-04 0.263E+00 0.127E-02 0.233E-03 .24344E-07 0.353E-03 0.193E+00 0.000E+00 0.000E+00 0.000E+00
BIGSUB    2        0   62.53442E+01 0.410E+01 0.000E+00 0.126E+01 0.882E+00 0.184E+03 0.323E+01 0.404E-02 0.151E+01 0.185E+01 0.816E-04 0.196E-03 0.241E-04 0.465E-04 0.178E-05 0.392E-04 0.275E+00 0.457E-02 0.179E-02 .56548E-07 0.467E-03 0.194E+00 0.000E+00 0.000E+00 0.000E+00
BIGSUB    3        0   62.78363E+01 0.410E+01 0.000E+00 0.124E+01 0.936E+00 0.191E+03 0.353E+01 0.415E-02 0.156E+01 0.194E+01 0.163E-03 0.232E-03 0.285E-04 0.238E-04 0.104E-05 0.571E-04 0.304E+00 0.882E-03 0.234E-03 .47668E-07 0.809E-03 0.207E+00 0.000E+00 0.000E+00 0.000E+00
BIGSUB    1        0   63.87822E+01 0.530E+01 0.000E+00 0.305E+01 0.171E+01 0.189E+03 0.404E+01 0.195E-01 0.154E+01 0.188E+01 0.819E-03 0.101E-02 0.142E-03 0.938E-04 0.654E-05 0.243E-03 0.255E+00 0.119E-02 0.251E-03 .17530E-05 0.705E-02 0.190E+00 0.000E+00 0.000E+00 0.000E+00
BIGSUB    2        0   63.53442E+01 0.560E+01 0.000E+00 0.306E+01 0.171E+01 0.183E+03 0.442E+01 0.225E-01 0.155E+01 0.191E+01 0.586E-03 0.958E-03 0.136E-03 0.154E-03 0.870E-05 0.206E-03 0.268E+00 0.433E-02 0.192E-02 .17162E-05 0.598E-02 0.192E+00 0.000E+00 0.000E+00 0.000E+00
BIGSUB    3        0   63.78363E+01 0.660E+01 0.000E+00 0.311E+01 0.191E+01 0.190E+03 0.518E+01 0.626E-01 0.160E+01 0.204E+01 0.390E-02 0.313E-02 0.448E-03 0.226E-03 0.187E-04 0.730E-03 0.305E+00 0.868E-03 0.254E-03 .91633E-05 0.475E-01 0.207E+00 0.000E+00 0.000E+00 0.000E+00
BIGSUB    1        0   64.87822E+01 0.800E+00 0.000E+00 0.118E+01 0.535E+00 0.189E+03 0.290E+00 0.679E-04 0.157E+01 0.183E+01 0.454E-10 0.385E-05 0.536E-06 0.338E-06 0.242E-07 0.958E-06 0.185E+00 0.859E-03 0.267E-03 .51527E-12 0.000E+00 0.165E+00 0.000E+00 0.000E+00 0.000E+00
BIGSUB    2        0   64.53442E+01 0.250E+01 0.000E+00 0.118E+01 0.949E+00 0.183E+03 0.978E+00 0.545E-03 0.158E+01 0.186E+01 0.839E-10 0.177E-04 0.240E-05 0.220E-05 0.112E-06 0.356E-05 0.211E+00 0.327E-02 0.202E-02 .22865E-09 0.629E-11 0.168E+00 0.000E+00 0.000E+00 0.000E+00
BIGSUB    3        0   64.78363E+01 0.200E+01 0.000E+00 0.114E+01 0.912E+00 0.190E+03 0.751E+00 0.414E-03 0.164E+01 0.194E+01 0.585E-10 0.154E-04 0.202E-05 0.134E-05 0.895E-07 0.416E-05 0.230E+00 0.653E-03 0.272E-03 .43706E-11 0.383E-12 0.179E+00 0.000E+00 0.000E+00 0.000E+00
BIGSUB    1        0   65.87822E+01 0.500E+00 0.000E+00 0.434E+00 0.180E+00 0.190E+03 0.897E-01 0.125E-05 0.160E+01 0.181E+01 0.454E-10 0.240E-07 0.383E-08 0.253E-08 0.103E-08 0.746E-08 0.133E+00 0.620E-03 0.280E-03 .90563E-19 0.000E+00 0.161E+00 0.000E+00 0.000E+00 0.000E+00
BIGSUB    2        0   65.53442E+01 0.500E+00 0.000E+00 0.432E+00 0.217E+00 0.183E+03 0.138E+00 0.173E-05 0.161E+01 0.184E+01 0.839E-10 0.226E-07 0.381E-08 0.525E-08 0.111E-08 0.643E-08 0.153E+00 0.233E-02 0.210E-02 .79906E-18 0.000E+00 0.164E+00 0.000E+00 0.000E+00 0.000E+00
BIGSUB    3        0   65.78363E+01 0.250E+01 0.000E+00 0.417E+00 0.301E+00 0.191E+03 0.152E+01 0.217E-03 0.168E+01 0.194E+01 0.180E-05 0.279E-05 0.382E-06 0.838E-06 0.466E-07 0.708E-06 0.191E+00 0.544E-03 0.288E-03 .39103E-10 0.167E-05 0.177E+00 0.000E+00 0.000E+00 0.000E+00
BIGSUB    1        0   66.87822E+01 0.198E+02 0.000E+00 0.132E+01 0.850E+00 0.191E+03 0.134E+02 0.336E+01 0.165E+01 0.541E+01 0.179E+00 0.174E+00 0.263E-01 0.111E-01 0.145E-02 0.585E-01 0.330E+00 0.149E-02 0.303E-03 .40078E-02 0.540E+01 0.243E+00 0.000E+00 0.000E+00 0.000E+00
BIGSUB    2        0   66.53442E+01 0.180E+02 0.000E+00 0.131E+01 0.859E+00 0.184E+03 0.131E+02 0.242E+01 0.166E+01 0.448E+01 0.121E+00 0.125E+00 0.194E-01 0.853E-02 0.104E-02 0.410E-01 0.331E+00 0.485E-02 0.225E-02 .25607E-02 0.344E+01 0.238E+00 0.000E+00 0.000E+00 0.000E+00
BIGSUB    3        0   66.78363E+01 0.180E+02 0.000E+00 0.128E+01 0.783E+00 0.192E+03 0.125E+02 0.263E+01 0.172E+01 0.479E+01 0.259E+00 0.160E+00 0.225E-01 0.624E-02 0.687E-03 0.458E-01 0.364E+00 0.103E-02 0.312E-03 .31514E-02 0.771E+01 0.250E+00 0.000E+00 0.000E+00 0.000E+00
BIGSUB    1        0   67.87822E+01 0.300E+00 0.000E+00 0.191E+01 0.364E+00 0.190E+03 0.741E+00 0.601E-01 0.168E+01 0.205E+01 0.454E-10 0.336E-02 0.517E-03 0.218E-03 0.299E-04 0.126E-02 0.237E+00 0.107E-02 0.322E-03 .64337E-06 0.000E+00 0.198E+00 0.000E+00 0.000E+00 0.000E+00
BIGSUB    2        0   67.53442E+01 0.000E+00 0.000E+00 0.191E+01 0.925E-01 0.183E+03 0.737E+00 0.233E-01 0.170E+01 0.203E+01 0.839E-10 0.132E-02 0.205E-03 0.895E-04 0.108E-04 0.475E-03 0.238E+00 0.346E-02 0.237E-02 .58790E-07 0.000E+00 0.196E+00 0.000E+00 0.000E+00 0.000E+00
BIGSUB    3        0   67.78363E+01 0.000E+00 0.000E+00 0.186E+01 0.516E-01 0.191E+03 0.127E+01 0.261E-01 0.177E+01 0.213E+01 0.585E-10 0.168E-02 0.220E-03 0.586E-04 0.523E-05 0.565E-03 0.262E+00 0.755E-03 0.333E-03 .80404E-07 0.000E+00 0.209E+00 0.000E+00 0.000E+00 0.000E+00
BIGSUB    1        0   68.87822E+01 0.410E+01 0.000E+00 0.947E+00 0.664E+00 0.190E+03 0.310E+01 0.655E-02 0.172E+01 0.202E+01 0.144E-03 0.339E-03 0.463E-04 0.492E-04 0.272E-05 0.910E-04 0.221E+00 0.978E-03 0.341E-03 .71590E-07 0.709E-03 0.185E+00 0.000E+00 0.000E+00 0.000E+00
BIGSUB    2        0   68.53442E+01 0.510E+01 0.000E+00 0.945E+00 0.626E+00 0.184E+03 0.392E+01 0.143E-01 0.174E+01 0.206E+01 0.396E-03 0.617E-03 0.852E-04 0.141E-03 0.538E-05 0.132E-03 0.234E+00 0.332E-02 0.248E-02 .60308E-06 0.303E-02 0.188E+00 0.000E+00 0.000E+00 0.000E+00
BIGSUB    3        0   68.78363E+01 0.530E+01 0.000E+00 0.920E+00 0.638E+00 0.191E+03 0.413E+01 0.188E-01 0.181E+01 0.216E+01 0.101E-02 0.923E-03 0.129E-03 0.106E-03 0.541E-05 0.211E-03 0.258E+00 0.728E-03 0.354E-03 .99891E-06 0.913E-02 0.201E+00 0.000E+00 0.000E+00 0.000E+00
BIGSUB    1        0   69.87822E+01 0.000E+00 0.000E+00 0.355E+01 0.220E+00 0.190E+03 0.238E+00 0.713E-04 0.175E+01 0.199E+01 0.454E-10 0.399E-05 0.598E-06 0.360E-06 0.343E-07 0.137E-05 0.158E+00 0.704E-03 0.356E-03 .13354E-13 0.000E+00 0.182E+00 0.000E+00 0.000E+00 0.000E+00
BIGSUB    2        0   69.53442E+01 0.000E+00 0.000E+00 0.354E+01 0.208E+00 0.183E+03 0.299E+00 0.532E-04 0.177E+01 0.201E+01 0.839E-10 0.240E-05 0.331E-06 0.538E-06 0.190E-07 0.557E-06 0.168E+00 0.237E-02 0.258E-02 .16668E-12 0.000E+00 0.185E+00 0.000E+00 0.000E+00 0.000E+00
BIGSUB    3        0   69.78363E+01 0.000E+00 0.000E+00 0.348E+01 0.653E-01 0.190E+03 0.554E+00 0.696E-04 0.185E+01 0.211E+01 0.585E-10 0.362E-05 0.468E-06 0.350E-06 0.150E-07 0.863E-06 0.187E+00 0.539E-03 0.372E-03 .10021E-12 0.000E+00 0.198E+00 0.000E+00 0.000E+00 0.000E+00
BIGSUB    1        0   70.87822E+01 0.000E+00 0.000E+00 0.284E+01 0.122E+00 0.190E+03 0.745E-01 0.228E-05 0.178E+01 0.197E+01 0.454E-10 0.982E-07 0.155E-07 0.739E-08 0.142E-08 0.374E-07 0.114E+00 0.509E-03 0.368E-03 .21983E-19 0.000E+00 0.186E+00 0.000E+00 0.000E+00 0.000E+00
BIGSUB    2        0   70.53442E+01 0.000E+00 0.000E+00 0.283E+01 0.112E+00 0.183E+03 0.965E-01 0.118E-05 0.180E+01 0.200E+01 0.839E-10 0.188E-07 0.322E-08 0.374E-08 0.998E-09 0.612E-08 0.122E+00 0.169E-02 0.265E-02 .33274E-19 0.000E+00 0.189E+00 0.000E+00 0.000E+00 0.000E+00
BIGSUB    3        0   70.78363E+01 0.000E+00 0.000E+00 0.279E+01 0.474E-01 0.190E+03 0.209E+00 0.122E-05 0.188E+01 0.209E+01 0.585E-10 0.280E-07 0.416E-08 0.262E-08 0.990E-09 0.877E-08 0.136E+00 0.403E-03 0.386E-03 .13449E-19 0.000E+00 0.202E+00 0.000E+00 0.000E+00 0.000E+00
BIGSUB    1        0   71.87822E+01 0.000E+00 0.000E+00 0.322E+01 0.133E+00 0.190E+03 0.303E-01 0.986E-06 0.180E+01 0.196E+01 0.454E-10 0.344E-08 0.101E-08 0.955E-09 0.954E-09 0.252E-08 0.824E-01 0.370E-03 0.376E-03 .49568E-22 0.000E+00 0.178E+00 0.000E+00 0.000E+00 0.000E+00
BIGSUB    2        0   71.53442E+01 0.000E+00 0.000E+00 0.322E+01 0.123E+00 0.183E+03 0.446E-01 0.992E-06 0.182E+01 0.199E+01 0.839E-10 0.101E-08 0.962E-09 0.963E-09 0.962E-09 0.192E-08 0.883E-01 0.121E-02 0.270E-02 .21655E-22 0.000E+00 0.180E+00 0.000E+00 0.000E+00 0.000E+00
BIGSUB    3        0   71.78363E+01 0.000E+00 0.000E+00 0.317E+01 0.522E-01 0.190E+03 0.960E-01 0.992E-06 0.191E+01 0.208E+01 0.585E-10 0.103E-08 0.981E-09 0.982E-09 0.981E-09 0.196E-08 0.995E-01 0.304E-03 0.396E-03 .19903E-22 0.000E+00 0.193E+00 0.000E+00 0.000E+00 0.000E+00
BIGSUB    1        0   72.87822E+01 0.410E+01 0.000E+00 0.313E+01 0.168E+01 0.189E+03 0.299E+01 0.481E-02 0.183E+01 0.202E+01 0.148E-03 0.244E-03 0.316E-04 0.406E-04 0.185E-05 0.550E-04 0.112E+00 0.483E-03 0.385E-03 .68401E-07 0.704E-03 0.174E+00 0.000E+00 0.000E+00 0.000E+00
BIGSUB    2        0   72.53442E+01 0.460E+01 0.000E+00 0.312E+01 0.189E+01 0.182E+03 0.346E+01 0.750E-02 0.185E+01 0.206E+01 0.204E-03 0.334E-03 0.433E-04 0.109E-03 0.288E-05 0.660E-04 0.123E+00 0.169E-02 0.275E-02 .19749E-06 0.117E-02 0.177E+00 0.000E+00 0.000E+00 0.000E+00
BIGSUB    3        0   72.78363E+01 0.610E+01 0.000E+00 0.307E+01 0.189E+01 0.189E+03 0.452E+01 0.388E-01 0.194E+01 0.221E+01 0.240E-02 0.193E-02 0.273E-03 0.202E-03 0.114E-04 0.439E-03 0.156E+00 0.423E-03 0.408E-03 .38306E-05 0.265E-01 0.192E+00 0.000E+00 0.000E+00 0.000E+00
BIGSUB    1        0   73.87822E+01 0.500E+00 0.000E+00 0.133E+01 0.528E+00 0.189E+03 0.188E+00 0.187E-04 0.185E+01 0.201E+01 0.454E-10 0.997E-06 0.135E-06 0.156E-06 0.770E-08 0.237E-06 0.836E-01 0.355E-03 0.390E-03 .11903E-13 0.000E+00 0.182E+00 0.000E+00 0.000E+00 0.000E+00
BIGSUB    2        0   73.53442E+01 0.300E+00 0.000E+00 0.133E+01 0.225E+00 0.182E+03 0.199E+00 0.256E-04 0.187E+01 0.204E+01 0.839E-10 0.108E-05 0.144E-06 0.431E-06 0.945E-08 0.223E-06 0.903E-01 0.121E-02 0.278E-02 .43033E-13 0.000E+00 0.185E+00 0.000E+00 0.000E+00 0.000E+00
BIGSUB    3        0   73.78363E+01 0.300E+00 0.000E+00 0.130E+01 0.296E+00 0.189E+03 0.425E+00 0.145E-03 0.196E+01 0.215E+01 0.585E-10 0.704E-05 0.915E-06 0.684E-06 0.313E-07 0.163E-05 0.114E+00 0.318E-03 0.416E-03 .53067E-12 0.000E+00 0.200E+00 0.000E+00 0.000E+00 0.000E+00
BIGSUB    1        0   74.87822E+01 0.147E+02 0.000E+00 0.694E+00 0.471E+00 0.191E+03 0.101E+02 0.153E+01 0.187E+01 0.372E+01 0.796E-01 0.770E-01 0.111E-01 0.503E-02 0.571E-03 0.250E-01 0.238E+00 0.946E-03 0.404E-03 .11461E-02 0.203E+01 0.239E+00 0.000E+00 0.000E+00 0.000E+00
BIGSUB    2        0   74.53442E+01 0.135E+02 0.000E+00 0.692E+00 0.457E+00 0.184E+03 0.943E+01 0.107E+01 0.190E+01 0.328E+01 0.494E-01 0.519E-01 0.772E-02 0.442E-02 0.405E-03 0.164E-01 0.229E+00 0.301E-02 0.286E-02 .64241E-03 0.115E+01 0.239E+00 0.000E+00 0.000E+00 0.000E+00
BIGSUB    3        0   74.78363E+01 0.119E+02 0.000E+00 0.665E+00 0.429E+00 0.191E+03 0.771E+01 0.783E+00 0.199E+01 0.308E+01 0.689E-01 0.468E-01 0.641E-02 0.211E-02 0.199E-03 0.129E-01 0.228E+00 0.571E-03 0.430E-03 .42663E-03 0.144E+01 0.246E+00 0.000E+00 0.000E+00 0.000E+00
BIGSUB    1        0   75.87822E+01 0.500E+00 0.000E+00 0.266E+01 0.165E+01 0.189E+03 0.633E+00 0.271E-01 0.190E+01 0.218E+01 0.454E-10 0.139E-02 0.203E-03 0.961E-04 0.111E-04 0.510E-03 0.173E+00 0.688E-03 0.414E-03 .50496E-07 0.000E+00 0.201E+00 0.000E+00 0.000E+00 0.000E+00
BIGSUB    2        0   75.53442E+01 0.300E+00 0.000E+00 0.266E+01 0.838E+00 0.183E+03 0.533E+00 0.102E-01 0.192E+01 0.218E+01 0.839E-10 0.529E-03 0.781E-04 0.461E-04 0.394E-05 0.185E-03 0.165E+00 0.215E-02 0.292E-02 .43232E-08 0.000E+00 0.202E+00 0.000E+00 0.000E+00 0.000E+00
BIGSUB    3        0   75.78363E+01 0.500E+00 0.000E+00 0.260E+01 0.172E+01 0.189E+03 0.853E+00 0.746E-02 0.202E+01 0.227E+01 0.585E-10 0.463E-03 0.597E-04 0.179E-04 0.152E-05 0.153E-03 0.168E+00 0.429E-03 0.441E-03 .17214E-08 0.000E+00 0.215E+00 0.000E+00 0.000E+00 0.000E+00
BIGSUB    1        0   76.87822E+01 0.244E+02 0.000E+00 0.939E+00 0.767E+00 0.191E+03 0.153E+02 0.542E+01 0.194E+01 0.783E+01 0.331E+00 0.303E+00 0.437E-01 0.147E-01 0.204E-02 0.102E+00 0.391E+00 0.152E-02 0.438E-03 .77134E-02 0.981E+01 0.307E+00 0.000E+00 0.000E+00 0.000E+00
BIGSUB    2        0   76.53442E+01 0.257E+02 0.000E+00 0.936E+00 0.645E+00 0.185E+03 0.169E+02 0.562E+01 0.197E+01 0.807E+01 0.339E+00 0.311E+00 0.463E-01 0.157E-01 0.210E-02 0.104E+00 0.405E+00 0.499E-02 0.306E-02 .81841E-02 0.100E+02 0.335E+00 0.000E+00 0.000E+00 0.000E+00
BIGSUB    3        0   76.78363E+01 0.239E+02 0.000E+00 0.905E+00 0.717E+00 0.192E+03 0.142E+02 0.503E+01 0.206E+01 0.756E+01 0.533E+00 0.332E+00 0.455E-01 0.118E-01 0.128E-02 0.971E-01 0.385E+00 0.965E-03 0.464E-03 .80139E-02 0.168E+02 0.323E+00 0.000E+00 0.000E+00 0.000E+00
BIGSUB    1        0   77.87822E+01 0.250E+01 0.000E+00 0.211E+01 0.140E+01 0.190E+03 0.242E+01 0.955E-01 0.198E+01 0.246E+01 0.454E-10 0.590E-02 0.861E-03 0.272E-03 0.389E-04 0.218E-02 0.307E+00 0.119E-02 0.460E-03 .18576E-05 0.566E-11 0.215E+00 0.000E+00 0.000E+00 0.000E+00
BIGSUB    2        0   77.53442E+01 0.300E+00 0.000E+00 0.211E+01 0.242E+00 0.184E+03 0.958E+00 0.532E-01 0.201E+01 0.243E+01 0.839E-10 0.337E-02 0.498E-03 0.152E-03 0.203E-04 0.120E-02 0.290E+00 0.355E-02 0.318E-02 .47661E-06 0.000E+00 0.213E+00 0.000E+00 0.000E+00 0.000E+00
BIGSUB    3        0   77.78363E+01 0.300E+00 0.000E+00 0.207E+01 0.303E+00 0.191E+03 0.147E+01 0.492E-01 0.210E+01 0.250E+01 0.585E-10 0.359E-02 0.463E-03 0.109E-03 0.100E-04 0.121E-02 0.277E+00 0.708E-03 0.483E-03 .41693E-06 0.000E+00 0.224E+00 0.000E+00 0.000E+00 0.000E+00
BIGSUB    1        0   78.87822E+01 0.510E+01 0.000E+00 0.171E+01 0.106E+01 0.190E+03 0.362E+01 0.186E-01 0.202E+01 0.239E+01 0.772E-03 0.106E-02 0.145E-03 0.877E-04 0.614E-05 0.276E-03 0.281E+00 0.105E-02 0.482E-03 .83634E-06 0.519E-02 0.206E+00 0.000E+00 0.000E+00 0.000E+00
BIGSUB    2        0   78.53442E+01 0.510E+01 0.000E+00 0.171E+01 0.113E+01 0.183E+03 0.432E+01 0.148E-01 0.205E+01 0.242E+01 0.435E-03 0.677E-03 0.922E-04 0.174E-03 0.539E-05 0.153E-03 0.276E+00 0.332E-02 0.330E-02 .47608E-06 0.274E-02 0.208E+00 0.000E+00 0.000E+00 0.000E+00
BIGSUB    3        0   78.78363E+01 0.510E+01 0.000E+00 0.167E+01 0.122E+01 0.190E+03 0.414E+01 0.155E-01 0.213E+01 0.250E+01 0.831E-03 0.872E-03 0.116E-03 0.106E-03 0.425E-05 0.199E-03 0.267E+00 0.674E-03 0.503E-03 .62305E-06 0.588E-02 0.219E+00 0.000E+00 0.000E+00 0.000E+00
BIGSUB    1        0   79.87822E+01 0.279E+02 0.000E+00 0.175E+01 0.136E+01 0.191E+03 0.173E+02 0.732E+01 0.207E+01 0.998E+01 0.458E+00 0.408E+00 0.590E-01 0.169E-01 0.271E-02 0.140E+00 0.499E+00 0.184E-02 0.519E-03 .11055E-01 0.137E+02 0.339E+00 0.000E+00 0.000E+00 0.000E+00
BIGSUB    2        0   79.53442E+01 0.295E+02 0.000E+00 0.175E+01 0.973E+00 0.185E+03 0.185E+02 0.756E+01 0.211E+01 0.103E+02 0.468E+00 0.416E+00 0.616E-01 0.182E-01 0.280E-02 0.140E+00 0.512E+00 0.555E-02 0.350E-02 .11543E-01 0.140E+02 0.376E+00 0.000E+00 0.000E+00 0.000E+00
BIGSUB    3        0   79.78363E+01 0.295E+02 0.000E+00 0.171E+01 0.868E+00 0.193E+03 0.170E+02 0.803E+01 0.219E+01 0.108E+02 0.875E+00 0.527E+00 0.722E-01 0.174E-01 0.203E-02 0.156E+00 0.501E+00 0.126E-02 0.538E-03 .14411E-01 0.286E+02 0.377E+00 0.000E+00 0.000E+00 0.000E+00
BIGSUB    1        0   80.87822E+01 0.000E+00 0.000E+00 0.452E+01 0.180E+00 0.190E+03 0.101E+01 0.127E+00 0.212E+01 0.269E+01 0.454E-10 0.804E-02 0.117E-02 0.302E-03 0.512E-04 0.300E-02 0.356E+00 0.132E-02 0.551E-03 .36755E-05 0.000E+00 0.236E+00 0.000E+00 0.000E+00 0.000E+00
BIGSUB    2        0   80.53442E+01 0.000E+00 0.000E+00 0.452E+01 0.162E+00 0.184E+03 0.108E+01 0.704E-01 0.216E+01 0.268E+01 0.839E-10 0.451E-02 0.666E-03 0.173E-03 0.267E-04 0.162E-02 0.367E+00 0.395E-02 0.368E-02 .87760E-06 0.000E+00 0.235E+00 0.000E+00 0.000E+00 0.000E+00
BIGSUB    3        0   80.78363E+01 0.000E+00 0.000E+00 0.447E+01 0.854E-01 0.191E+03 0.181E+01 0.774E-01 0.224E+01 0.276E+01 0.585E-10 0.574E-02 0.740E-03 0.162E-03 0.156E-04 0.194E-02 0.360E+00 0.916E-03 0.569E-03 .12712E-05 0.000E+00 0.248E+00 0.000E+00 0.000E+00 0.000E+00
BIGSUB    1        0   81.87822E+01 0.000E+00 0.000E+00 0.397E+01 0.176E+00 0.190E+03 0.291E+00 0.365E-02 0.217E+01 0.251E+01 0.454E-10 0.236E-03 0.344E-04 0.871E-05 0.150E-05 0.885E-04 0.255E+00 0.944E-03 0.577E-03 .14095E-09 0.000E+00 0.228E+00 0.000E+00 0.000E+00 0.000E+00
BIGSUB    2        0   81.53442E+01 0.000E+00 0.000E+00 0.397E+01 0.163E+00 0.183E+03 0.310E+00 0.107E-02 0.221E+01 0.255E+01 0.839E-10 0.724E-04 0.108E-04 0.263E-05 0.417E-06 0.262E-04 0.263E+00 0.281E-02 0.381E-02 .62982E-11 0.000E+00 0.232E+00 0.000E+00 0.000E+00 0.000E+00
BIGSUB    3        0   81.78363E+01 0.000E+00 0.000E+00 0.389E+01 0.684E-01 0.190E+03 0.651E+00 0.137E-02 0.228E+01 0.263E+01 0.585E-10 0.106E-03 0.136E-04 0.283E-05 0.263E-06 0.369E-04 0.260E+00 0.673E-03 0.594E-03 .13310E-10 0.000E+00 0.244E+00 0.000E+00 0.000E+00 0.000E+00
BIGSUB    1        0   82.87822E+01 0.000E+00 0.000E+00 0.327E+01 0.143E+00 0.190E+03 0.122E+00 0.112E-03 0.220E+01 0.247E+01 0.454E-10 0.721E-05 0.106E-05 0.266E-06 0.463E-07 0.271E-05 0.183E+00 0.680E-03 0.597E-03 .43152E-14 0.000E+00 0.228E+00 0.000E+00 0.000E+00 0.000E+00
BIGSUB    2        0   82.53442E+01 0.000E+00 0.000E+00 0.327E+01 0.132E+00 0.183E+03 0.141E+00 0.190E-04 0.225E+01 0.252E+01 0.839E-10 0.127E-05 0.190E-06 0.460E-07 0.788E-08 0.460E-06 0.189E+00 0.201E-02 0.392E-02 .40525E-16 0.000E+00 0.232E+00 0.000E+00 0.000E+00 0.000E+00
BIGSUB    3        0   82.78363E+01 0.000E+00 0.000E+00 0.321E+01 0.555E-01 0.190E+03 0.298E+00 0.277E-04 0.232E+01 0.259E+01 0.585E-10 0.211E-05 0.272E-06 0.564E-07 0.579E-08 0.744E-06 0.188E+00 0.498E-03 0.613E-03 .12092E-15 0.000E+00 0.244E+00 0.000E+00 0.000E+00 0.000E+00
BIGSUB    1        0   83.87822E+01 0.000E+00 0.000E+00 0.430E+01 0.178E+00 0.189E+03 0.542E-01 0.402E-05 0.223E+01 0.245E+01 0.454E-10 0.223E-06 0.331E-07 0.877E-08 0.198E-08 0.847E-07 0.131E+00 0.492E-03 0.612E-03 .12943E-18 0.000E+00 0.227E+00 0.000E+00 0.000E+00 0.000E+00
BIGSUB    2        0   83.53442E+01 0.000E+00 0.000E+00 0.429E+01 0.164E+00 0.183E+03 0.695E-01 0.105E-05 0.228E+01 0.250E+01 0.839E-10 0.234E-07 0.408E-08 0.151E-08 0.962E-09 0.962E-08 0.137E+00 0.144E-02 0.399E-02 .27141E-21 0.000E+00 0.232E+00 0.000E+00 0.000E+00 0.000E+00
BIGSUB    3        0   83.78363E+01 0.000E+00 0.000E+00 0.422E+01 0.700E-01 0.190E+03 0.145E+00 0.125E-05 0.235E+01 0.257E+01 0.585E-10 0.436E-07 0.620E-08 0.183E-08 0.981E-09 0.166E-07 0.137E+00 0.372E-03 0.627E-03 .10992E-20 0.000E+00 0.244E+00 0.000E+00 0.000E+00 0.000E+00
BIGSUB    1        0   84.87822E+01 0.000E+00 0.000E+00 0.443E+01 0.166E+00 0.189E+03 0.236E-01 0.986E-06 0.226E+01 0.244E+01 0.454E-10 0.742E-08 0.157E-08 0.954E-09 0.954E-09 0.390E-08 0.950E-01 0.358E-03 0.623E-03 .62031E-22 0.000E+00 0.221E+00 0.000E+00 0.000E+00 0.000E+00
BIGSUB    2        0   84.53442E+01 0.000E+00 0.000E+00 0.442E+01 0.157E+00 0.183E+03 0.349E-01 0.992E-06 0.231E+01 0.249E+01 0.839E-10 0.112E-08 0.962E-09 0.962E-09 0.962E-09 0.192E-08 0.993E-01 0.103E-02 0.403E-02 .14215E-22 0.000E+00 0.226E+00 0.000E+00 0.000E+00 0.000E+00
BIGSUB    3        0   84.78363E+01 0.000E+00 0.000E+00 0.436E+01 0.542E-01 0.190E+03 0.714E-01 0.992E-06 0.238E+01 0.256E+01 0.585E-10 0.158E-08 0.981E-09 0.981E-09 0.981E-09 0.197E-08 0.101E+00 0.282E-03 0.636E-03 .16686E-22 0.000E+00 0.238E+00 0.000E+00 0.000E+00 0.000E+00
BIGSUB    1        0   85.87822E+01 0.000E+00 0.000E+00 0.414E+01 0.152E+00 0.189E+03 0.130E-01 0.986E-06 0.228E+01 0.243E+01 0.454E-10 0.954E-09 0.954E-09 0.954E-09 0.954E-09 0.191E-08 0.691E-01 0.262E-03 0.628E-03 .13339E-22 0.000E+00 0.217E+00 0.000E+00 0.000E+00 0.000E+00
BIGSUB    2        0   85.53442E+01 0.000E+00 0.000E+00 0.414E+01 0.144E+00 0.183E+03 0.193E-01 0.992E-06 0.233E+01 0.248E+01 0.839E-10 0.962E-09 0.962E-09 0.962E-09 0.962E-09 0.192E-08 0.727E-01 0.742E-03 0.404E-02 .13076E-22 0.000E+00 0.222E+00 0.000E+00 0.000E+00 0.000E+00
BIGSUB    3        0   85.78363E+01 0.000E+00 0.000E+00 0.408E+01 0.495E-01 0.190E+03 0.394E-01 0.992E-06 0.240E+01 0.256E+01 0.585E-10 0.981E-09 0.981E-09 0.981E-09 0.981E-09 0.196E-08 0.745E-01 0.216E-03 0.641E-03 .12582E-22 0.000E+00 0.233E+00 0.000E+00 0.000E+00 0.000E+00
BIGSUB    1        0   86.87822E+01 0.000E+00 0.000E+00 0.270E+01 0.106E+00 0.189E+03 0.721E-02 0.986E-06 0.230E+01 0.243E+01 0.454E-10 0.954E-09 0.954E-09 0.954E-09 0.954E-09 0.191E-08 0.506E-01 0.194E-03 0.630E-03 .13357E-22 0.000E+00 0.215E+00 0.000E+00 0.000E+00 0.000E+00
BIGSUB    2        0   86.53442E+01 0.000E+00 0.000E+00 0.270E+01 0.101E+00 0.183E+03 0.107E-01 0.992E-06 0.234E+01 0.248E+01 0.839E-10 0.962E-09 0.962E-09 0.962E-09 0.962E-09 0.192E-08 0.536E-01 0.537E-03 0.404E-02 .13079E-22 0.000E+00 0.220E+00 0.000E+00 0.000E+00 0.000E+00
BIGSUB    3        0   86.78363E+01 0.000E+00 0.000E+00 0.265E+01 0.348E-01 0.190E+03 0.218E-01 0.992E-06 0.241E+01 0.256E+01 0.585E-10 0.981E-09 0.981E-09 0.981E-09 0.981E-09 0.196E-08 0.557E-01 0.168E-03 0.642E-03 .12605E-22 0.000E+00 0.231E+00 0.000E+00 0.000E+00 0.000E+00
BIGSUB    1        0   87.87822E+01 0.000E+00 0.000E+00 0.160E+01 0.678E-01 0.189E+03 0.399E-02 0.986E-06 0.231E+01 0.243E+01 0.454E-10 0.954E-09 0.954E-09 0.954E-09 0.954E-09 0.191E-08 0.374E-01 0.144E-03 0.628E-03 .13373E-22 0.000E+00 0.217E+00 0.000E+00 0.000E+00 0.000E+00
BIGSUB    2        0   87.53442E+01 0.000E+00 0.000E+00 0.160E+01 0.642E-01 0.183E+03 0.590E-02 0.992E-06 0.236E+01 0.248E+01 0.839E-10 0.962E-09 0.962E-09 0.962E-09 0.962E-09 0.192E-08 0.399E-01 0.391E-03 0.401E-02 .13082E-22 0.000E+00 0.222E+00 0.000E+00 0.000E+00 0.000E+00
BIGSUB    3        0   87.78363E+01 0.000E+00 0.000E+00 0.157E+01 0.221E-01 0.190E+03 0.120E-01 0.992E-06 0.242E+01 0.255E+01 0.585E-10 0.981E-09 0.981E-09 0.981E-09 0.981E-09 0.196E-08 0.421E-01 0.132E-03 0.639E-03 .12627E-22 0.000E+00 0.233E+00 0.000E+00 0.000E+00 0.000E+00
BIGSUB    1        0   88.87822E+01 0.000E+00 0.000E+00 0.358E+01 0.152E+00 0.189E+03 0.221E-02 0.986E-06 0.231E+01 0.243E+01 0.454E-10 0.954E-09 0.954E-09 0.954E-09 0.954E-09 0.191E-08 0.279E-01 0.109E-03 0.624E-03 .13397E-22 0.000E+00 0.216E+00 0.000E+00 0.000E+00 0.000E+00
BIGSUB    2        0   88.53442E+01 0.000E+00 0.000E+00 0.358E+01 0.145E+00 0.183E+03 0.326E-02 0.992E-06 0.236E+01 0.248E+01 0.839E-10 0.962E-09 0.962E-09 0.962E-09 0.962E-09 0.192E-08 0.300E-01 0.286E-03 0.397E-02 .13094E-22 0.000E+00 0.221E+00 0.000E+00 0.000E+00 0.000E+00
BIGSUB    3        0   88.78363E+01 0.000E+00 0.000E+00 0.351E+01 0.520E-01 0.190E+03 0.666E-02 0.992E-06 0.243E+01 0.255E+01 0.585E-10 0.981E-09 0.981E-09 0.981E-09 0.981E-09 0.196E-08 0.322E-01 0.106E-03 0.633E-03 .12659E-22 0.000E+00 0.232E+00 0.000E+00 0.000E+00 0.000E+00
BIGSUB    1        0   89.87822E+01 0.610E+01 0.000E+00 0.310E+01 0.194E+01 0.189E+03 0.414E+01 0.374E-01 0.232E+01 0.254E+01 0.221E-02 0.213E-02 0.288E-03 0.225E-03 0.106E-04 0.529E-03 0.948E-01 0.303E-03 0.621E-03 .44002E-05 0.214E-01 0.259E+00 0.000E+00 0.000E+00 0.000E+00
BIGSUB    2        0   89.53442E+01 0.640E+01 0.000E+00 0.310E+01 0.197E+01 0.182E+03 0.476E+01 0.461E-01 0.237E+01 0.261E+01 0.169E-02 0.207E-02 0.289E-03 0.912E-03 0.156E-04 0.504E-03 0.104E+00 0.116E-02 0.395E-02 .47393E-05 0.165E-01 0.267E+00 0.000E+00 0.000E+00 0.000E+00
BIGSUB    3        0   89.78363E+01 0.810E+01 0.000E+00 0.308E+01 0.139E+01 0.190E+03 0.582E+01 0.184E+00 0.244E+01 0.285E+01 0.142E-01 0.997E-02 0.135E-02 0.119E-02 0.436E-04 0.260E-02 0.133E+00 0.288E-03 0.632E-03 .33491E-04 0.163E+00 0.286E+00 0.000E+00 0.000E+00 0.000E+00
BIGSUB    1        0   90.87822E+01 0.000E+00 0.000E+00 0.415E+01 0.252E+00 0.189E+03 0.214E+00 0.146E-03 0.233E+01 0.248E+01 0.454E-10 0.857E-05 0.115E-05 0.940E-06 0.459E-07 0.223E-05 0.685E-01 0.221E-03 0.616E-03 .13224E-11 0.000E+00 0.269E+00 0.000E+00 0.000E+00 0.000E+00
BIGSUB    2        0   90.53442E+01 0.000E+00 0.000E+00 0.414E+01 0.254E+00 0.182E+03 0.248E+00 0.210E-03 0.238E+01 0.254E+01 0.839E-10 0.946E-05 0.131E-05 0.482E-05 0.717E-07 0.251E-05 0.757E-01 0.832E-03 0.391E-02 .15816E-11 0.000E+00 0.276E+00 0.000E+00 0.000E+00 0.000E+00
BIGSUB    3        0   90.78363E+01 0.000E+00 0.000E+00 0.409E+01 0.174E+00 0.189E+03 0.506E+00 0.144E-02 0.245E+01 0.263E+01 0.585E-10 0.777E-04 0.100E-04 0.598E-05 0.281E-06 0.244E-04 0.971E-01 0.217E-03 0.628E-03 .12565E-10 0.000E+00 0.292E+00 0.000E+00 0.000E+00 0.000E+00
BIGSUB    1        0   91.87822E+01 0.000E+00 0.000E+00 0.427E+01 0.289E+00 0.189E+03 0.463E-01 0.202E-05 0.233E+01 0.246E+01 0.454E-10 0.697E-07 0.101E-07 0.125E-07 0.109E-08 0.217E-07 0.498E-01 0.162E-03 0.608E-03 .23359E-18 0.000E+00 0.245E+00 0.000E+00 0.000E+00 0.000E+00
BIGSUB    2        0   91.53442E+01 0.000E+00 0.000E+00 0.426E+01 0.295E+00 0.182E+03 0.580E-01 0.259E-05 0.238E+01 0.253E+01 0.839E-10 0.878E-07 0.129E-07 0.457E-07 0.135E-08 0.275E-07 0.551E-01 0.597E-03 0.386E-02 .35234E-18 0.000E+00 0.251E+00 0.000E+00 0.000E+00 0.000E+00
BIGSUB    3        0   91.78363E+01 0.000E+00 0.000E+00 0.421E+01 0.205E+00 0.189E+03 0.154E+00 0.236E-04 0.245E+01 0.261E+01 0.585E-10 0.124E-05 0.160E-06 0.724E-07 0.493E-08 0.423E-06 0.710E-01 0.166E-03 0.622E-03 .45135E-16 0.000E+00 0.265E+00 0.000E+00 0.000E+00 0.000E+00
BIGSUB    1        0   92.87822E+01 0.000E+00 0.000E+00 0.499E+01 0.359E+00 0.188E+03 0.150E-01 0.986E-06 0.232E+01 0.245E+01 0.454E-10 0.167E-08 0.960E-09 0.956E-09 0.954E-09 0.193E-08 0.364E-01 0.120E-03 0.598E-03 .19924E-22 0.000E+00 0.223E+00 0.000E+00 0.000E+00 0.000E+00
BIGSUB    2        0   92.53442E+01 0.000E+00 0.000E+00 0.498E+01 0.376E+00 0.182E+03 0.234E-01 0.992E-06 0.238E+01 0.251E+01 0.839E-10 0.178E-08 0.966E-09 0.128E-08 0.962E-09 0.198E-08 0.404E-01 0.430E-03 0.379E-02 .22585E-22 0.000E+00 0.229E+00 0.000E+00 0.000E+00 0.000E+00
BIGSUB    3        0   92.78363E+01 0.000E+00 0.000E+00 0.494E+01 0.287E+00 0.189E+03 0.610E-01 0.114E-05 0.245E+01 0.259E+01 0.585E-10 0.243E-07 0.369E-08 0.187E-08 0.981E-09 0.958E-08 0.523E-01 0.128E-03 0.613E-03 .39574E-21 0.000E+00 0.241E+00 0.000E+00 0.000E+00 0.000E+00
BIGSUB    1        0   93.87822E+01 0.000E+00 0.000E+00 0.421E+01 0.313E+00 0.188E+03 0.783E-02 0.986E-06 0.232E+01 0.243E+01 0.454E-10 0.954E-09 0.954E-09 0.954E-09 0.954E-09 0.191E-08 0.268E-01 0.899E-04 0.587E-03 .13301E-22 0.000E+00 0.224E+00 0.000E+00 0.000E+00 0.000E+00
BIGSUB    2        0   93.53442E+01 0.000E+00 0.000E+00 0.420E+01 0.319E+00 0.181E+03 0.124E-01 0.992E-06 0.238E+01 0.249E+01 0.839E-10 0.962E-09 0.962E-09 0.962E-09 0.962E-09 0.192E-08 0.299E-01 0.312E-03 0.371E-02 .12902E-22 0.000E+00 0.230E+00 0.000E+00 0.000E+00 0.000E+00
BIGSUB    3        0   93.78363E+01 0.000E+00 0.000E+00 0.414E+01 0.192E+00 0.189E+03 0.312E-01 0.992E-06 0.244E+01 0.257E+01 0.585E-10 0.117E-08 0.981E-09 0.981E-09 0.981E-09 0.196E-08 0.389E-01 0.100E-03 0.603E-03 .13742E-22 0.000E+00 0.242E+00 0.000E+00 0.000E+00 0.000E+00
BIGSUB    1        0   94.87822E+01 0.000E+00 0.000E+00 0.410E+01 0.307E+00 0.188E+03 0.428E-02 0.986E-06 0.231E+01 0.242E+01 0.454E-10 0.954E-09 0.954E-09 0.954E-09 0.954E-09 0.191E-08 0.199E-01 0.680E-04 0.574E-03 .13469E-22 0.000E+00 0.218E+00 0.000E+00 0.000E+00 0.000E+00
BIGSUB    2        0   94.53442E+01 0.000E+00 0.000E+00 0.409E+01 0.316E+00 0.181E+03 0.678E-02 0.992E-06 0.237E+01 0.248E+01 0.839E-10 0.962E-09 0.962E-09 0.962E-09 0.962E-09 0.192E-08 0.223E-01 0.227E-03 0.363E-02 .13057E-22 0.000E+00 0.224E+00 0.000E+00 0.000E+00 0.000E+00
BIGSUB    3        0   94.78363E+01 0.000E+00 0.000E+00 0.403E+01 0.189E+00 0.188E+03 0.171E-01 0.992E-06 0.243E+01 0.255E+01 0.585E-10 0.981E-09 0.981E-09 0.981E-09 0.981E-09 0.196E-08 0.292E-01 0.797E-04 0.590E-03 .12579E-22 0.000E+00 0.235E+00 0.000E+00 0.000E+00 0.000E+00
BIGSUB    1        0   95.87822E+01 0.130E+01 0.000E+00 0.207E+01 0.660E+00 0.189E+03 0.122E-01 0.240E-04 0.230E+01 0.240E+01 0.198E-06 0.219E-06 0.306E-07 0.127E-03 0.432E-08 0.682E-07 0.190E-01 0.307E-03 0.560E-03 .13232E-11 0.408E-08 0.209E+00 0.000E+00 0.000E+00 0.000E+00
BIGSUB    2        0   95.53442E+01 0.310E+01 0.000E+00 0.207E+01 0.997E+00 0.183E+03 0.498E+00 0.946E-03 0.236E+01 0.248E+01 0.295E-04 0.354E-04 0.478E-05 0.522E-05 0.152E-06 0.729E-05 0.341E-01 0.165E-02 0.354E-02 .85553E-09 0.510E-04 0.216E+00 0.000E+00 0.000E+00 0.000E+00
BIGSUB    3        0   95.78363E+01 0.100E+01 0.000E+00 0.202E+01 0.101E+01 0.188E+03 0.196E+00 0.992E-06 0.242E+01 0.254E+01 0.585E-10 0.981E-09 0.981E-09 0.981E-09 0.981E-09 0.196E-08 0.296E-01 0.716E-04 0.577E-03 .12669E-22 0.000E+00 0.226E+00 0.000E+00 0.000E+00 0.000E+00
BIGSUB    1        0   96.87822E+01 0.000E+00 0.000E+00 0.349E+01 0.283E+00 0.189E+03 0.294E-02 0.101E-05 0.228E+01 0.239E+01 0.454E-10 0.133E-08 0.995E-09 0.215E-06 0.954E-09 0.201E-08 0.143E-01 0.221E-03 0.545E-03 .69669E-20 0.000E+00 0.202E+00 0.000E+00 0.000E+00 0.000E+00
[...]
BIGSUB    1        0  143.87822E+01 0.000E+00 0.000E+00 0.576E+01 0.145E+01 0.184E+03 0.142E+00 0.514E-02 0.118E+01 0.138E+01 0.454E-10 0.329E-03 0.425E-04 0.100E-04 0.137E-05 0.123E-03 0.136E+00 0.208E-03 0.168E-03 .11364E-08 0.000E+00 0.111E+00 0.000E+00 0.000E+00 0.000E+00
BIGSUB    2        0  143.53442E+01 0.000E+00 0.000E+00 0.575E+01 0.183E+01 0.172E+03 0.586E-01 0.667E-03 0.962E+00 0.109E+01 0.839E-10 0.397E-04 0.547E-05 0.925E-05 0.210E-06 0.139E-04 0.798E-01 0.608E-02 0.463E-03 .78141E-11 0.000E+00 0.878E-01 0.000E+00 0.000E+00 0.000E+00
BIGSUB    3        0  143.78363E+01 0.000E+00 0.000E+00 0.568E+01 0.141E+01 0.174E+03 0.162E-05 0.992E-06 0.123E+01 0.130E+01 0.585E-10 0.981E-09 0.981E-09 0.111E-08 0.981E-09 0.196E-08 0.612E-02 0.248E-04 0.102E-03 .55633E-22 0.000E+00 0.107E+00 0.000E+00 0.000E+00 0.000E+00
BIGSUB    1        0  144.87822E+01 0.000E+00 0.000E+00 0.613E+01 0.159E+01 0.183E+03 0.476E-01 0.158E-03 0.119E+01 0.135E+01 0.454E-10 0.101E-04 0.130E-05 0.307E-06 0.424E-07 0.378E-05 0.971E-01 0.154E-03 0.169E-03 .35488E-13 0.000E+00 0.110E+00 0.000E+00 0.000E+00 0.000E+00
BIGSUB    2        0  144.53442E+01 0.000E+00 0.000E+00 0.612E+01 0.200E+01 0.171E+03 0.249E-01 0.122E-04 0.967E+00 0.107E+01 0.839E-10 0.703E-06 0.974E-07 0.168E-06 0.434E-08 0.247E-06 0.574E-01 0.431E-02 0.473E-03 .50124E-16 0.000E+00 0.871E-01 0.000E+00 0.000E+00 0.000E+00
BIGSUB    3        0  144.78363E+01 0.000E+00 0.000E+00 0.605E+01 0.155E+01 0.172E+03 0.894E-06 0.992E-06 0.123E+01 0.129E+01 0.585E-10 0.981E-09 0.981E-09 0.982E-09 0.981E-09 0.196E-08 0.506E-02 0.201E-04 0.986E-04 .51622E-22 0.000E+00 0.107E+00 0.000E+00 0.000E+00 0.000E+00
BIGSUB    1        0  145.87822E+01 0.000E+00 0.000E+00 0.654E+01 0.177E+01 0.181E+03 0.170E-01 0.543E-05 0.120E+01 0.133E+01 0.454E-10 0.312E-06 0.407E-07 0.100E-07 0.186E-08 0.118E-06 0.697E-01 0.115E-03 0.169E-03 .10735E-17 0.000E+00 0.108E+00 0.000E+00 0.000E+00 0.000E+00
BIGSUB    2        0  145.53442E+01 0.000E+00 0.000E+00 0.654E+01 0.222E+01 0.168E+03 0.134E-01 0.992E-06 0.970E+00 0.106E+01 0.839E-10 0.133E-07 0.244E-08 0.374E-08 0.962E-09 0.582E-08 0.415E-01 0.307E-02 0.480E-03 .59458E-21 0.000E+00 0.856E-01 0.000E+00 0.000E+00 0.000E+00
BIGSUB    3        0  145.78363E+01 0.000E+00 0.000E+00 0.647E+01 0.172E+01 0.170E+03 0.495E-06 0.992E-06 0.122E+01 0.129E+01 0.585E-10 0.981E-09 0.981E-09 0.981E-09 0.981E-09 0.196E-08 0.425E-02 0.163E-04 0.956E-04 .52243E-22 0.000E+00 0.106E+00 0.000E+00 0.000E+00 0.000E+00
BIGSUB    1        0  146.87822E+01 0.000E+00 0.000E+00 0.664E+01 0.178E+01 0.179E+03 0.922E-02 0.986E-06 0.120E+01 0.132E+01 0.454E-10 0.102E-07 0.181E-08 0.954E-09 0.954E-09 0.487E-08 0.503E-01 0.874E-04 0.169E-03 .25621E-21 0.000E+00 0.107E+00 0.000E+00 0.000E+00 0.000E+00
BIGSUB    2        0  146.53442E+01 0.000E+00 0.000E+00 0.663E+01 0.223E+01 0.166E+03 0.729E-02 0.992E-06 0.972E+00 0.105E+01 0.839E-10 0.962E-09 0.962E-09 0.962E-09 0.962E-09 0.192E-08 0.302E-01 0.218E-02 0.484E-03 .80082E-22 0.000E+00 0.849E-01 0.000E+00 0.000E+00 0.000E+00
BIGSUB    3        0  146.78363E+01 0.000E+00 0.000E+00 0.657E+01 0.172E+01 0.169E+03 0.274E-06 0.992E-06 0.121E+01 0.128E+01 0.585E-10 0.981E-09 0.981E-09 0.981E-09 0.981E-09 0.196E-08 0.361E-02 0.134E-04 0.925E-04 .52986E-22 0.000E+00 0.106E+00 0.000E+00 0.000E+00 0.000E+00
BIGSUB    1        0  147.87822E+01 0.000E+00 0.000E+00 0.731E+01 0.179E+01 0.178E+03 0.492E-02 0.986E-06 0.121E+01 0.131E+01 0.454E-10 0.954E-09 0.954E-09 0.954E-09 0.954E-09 0.191E-08 0.365E-01 0.671E-04 0.167E-03 .47050E-22 0.000E+00 0.106E+00 0.000E+00 0.000E+00 0.000E+00
BIGSUB    2        0  147.53442E+01 0.000E+00 0.000E+00 0.731E+01 0.227E+01 0.164E+03 0.392E-02 0.992E-06 0.972E+00 0.104E+01 0.839E-10 0.962E-09 0.962E-09 0.962E-09 0.962E-09 0.192E-08 0.221E-01 0.156E-02 0.484E-03 .81466E-22 0.000E+00 0.841E-01 0.000E+00 0.000E+00 0.000E+00
BIGSUB    3        0  147.78363E+01 0.000E+00 0.000E+00 0.726E+01 0.173E+01 0.167E+03 0.151E-06 0.992E-06 0.120E+01 0.127E+01 0.585E-10 0.981E-09 0.981E-09 0.981E-09 0.981E-09 0.196E-08 0.310E-02 0.114E-04 0.893E-04 .53835E-22 0.000E+00 0.105E+00 0.000E+00 0.000E+00 0.000E+00
BIGSUB    1        0  148.87822E+01 0.000E+00 0.000E+00 0.651E+01 0.146E+01 0.176E+03 0.255E-02 0.986E-06 0.121E+01 0.130E+01 0.454E-10 0.954E-09 0.954E-09 0.954E-09 0.954E-09 0.191E-08 0.266E-01 0.522E-04 0.165E-03 .47661E-22 0.000E+00 0.104E+00 0.000E+00 0.000E+00 0.000E+00
BIGSUB    2        0  148.53442E+01 0.000E+00 0.000E+00 0.650E+01 0.184E+01 0.163E+03 0.211E-02 0.992E-06 0.970E+00 0.103E+01 0.839E-10 0.962E-09 0.962E-09 0.962E-09 0.962E-09 0.192E-08 0.163E-01 0.111E-02 0.482E-03 .82756E-22 0.000E+00 0.830E-01 0.000E+00 0.000E+00 0.000E+00
BIGSUB    3        0  148.78363E+01 0.000E+00 0.000E+00 0.646E+01 0.137E+01 0.166E+03 0.838E-07 0.992E-06 0.119E+01 0.126E+01 0.585E-10 0.981E-09 0.981E-09 0.981E-09 0.981E-09 0.196E-08 0.269E-02 0.986E-05 0.862E-04 .54790E-22 0.000E+00 0.103E+00 0.000E+00 0.000E+00 0.000E+00
BIGSUB    1        0  149.87822E+01 0.000E+00 0.000E+00 0.680E+01 0.166E+01 0.175E+03 0.127E-02 0.986E-06 0.121E+01 0.129E+01 0.454E-10 0.954E-09 0.954E-09 0.954E-09 0.954E-09 0.191E-08 0.196E-01 0.412E-04 0.163E-03 .48237E-22 0.000E+00 0.104E+00 0.000E+00 0.000E+00 0.000E+00
BIGSUB    2        0  149.53442E+01 0.000E+00 0.000E+00 0.680E+01 0.207E+01 0.161E+03 0.113E-02 0.992E-06 0.967E+00 0.103E+01 0.839E-10 0.962E-09 0.962E-09 0.962E-09 0.962E-09 0.192E-08 0.121E-01 0.797E-03 0.478E-03 .84032E-22 0.000E+00 0.827E-01 0.000E+00 0.000E+00 0.000E+00
BIGSUB    3        0  149.78363E+01 0.000E+00 0.000E+00 0.675E+01 0.153E+01 0.164E+03 0.000E+00 0.992E-06 0.118E+01 0.124E+01 0.585E-10 0.981E-09 0.981E-09 0.981E-09 0.981E-09 0.196E-08 0.236E-02 0.858E-05 0.830E-04 .55851E-22 0.000E+00 0.102E+00 0.000E+00 0.000E+00 0.000E+00
BIGSUB    1        0  150.87822E+01 0.000E+00 0.000E+00 0.693E+01 0.190E+01 0.173E+03 0.547E-03 0.986E-06 0.121E+01 0.129E+01 0.454E-10 0.954E-09 0.954E-09 0.954E-09 0.954E-09 0.191E-08 0.146E-01 0.331E-04 0.160E-03 .48819E-22 0.000E+00 0.103E+00 0.000E+00 0.000E+00 0.000E+00
BIGSUB    2        0  150.53442E+01 0.000E+00 0.000E+00 0.692E+01 0.231E+01 0.158E+03 0.591E-03 0.992E-06 0.963E+00 0.102E+01 0.839E-10 0.962E-09 0.962E-09 0.962E-09 0.962E-09 0.192E-08 0.913E-02 0.574E-03 0.472E-03 .85348E-22 0.000E+00 0.816E-01 0.000E+00 0.000E+00 0.000E+00
BIGSUB    3        0  150.78363E+01 0.000E+00 0.000E+00 0.686E+01 0.171E+01 0.163E+03 0.000E+00 0.992E-06 0.117E+01 0.123E+01 0.585E-10 0.981E-09 0.981E-09 0.981E-09 0.981E-09 0.196E-08 0.208E-02 0.752E-05 0.799E-04 .57020E-22 0.000E+00 0.101E+00 0.000E+00 0.000E+00 0.000E+00
BIGSUB    1        0  151.87822E+01 0.000E+00 0.000E+00 0.545E+01 0.153E+01 0.172E+03 0.234E-03 0.986E-06 0.121E+01 0.128E+01 0.454E-10 0.954E-09 0.954E-09 0.954E-09 0.954E-09 0.191E-08 0.109E-01 0.269E-04 0.156E-03 .49438E-22 0.000E+00 0.100E+00 0.000E+00 0.000E+00 0.000E+00
BIGSUB    2        0  151.53442E+01 0.500E+00 0.000E+00 0.545E+01 0.183E+01 0.157E+03 0.327E-03 0.992E-06 0.958E+00 0.101E+01 0.839E-10 0.962E-09 0.962E-09 0.962E-09 0.962E-09 0.192E-08 0.695E-02 0.415E-03 0.464E-03 .86747E-22 0.000E+00 0.793E-01 0.000E+00 0.000E+00 0.000E+00
BIGSUB    3        0  151.78363E+01 0.000E+00 0.000E+00 0.540E+01 0.134E+01 0.161E+03 0.000E+00 0.992E-06 0.116E+01 0.122E+01 0.585E-10 0.981E-09 0.981E-09 0.981E-09 0.981E-09 0.196E-08 0.184E-02 0.664E-05 0.767E-04 .58298E-22 0.000E+00 0.976E-01 0.000E+00 0.000E+00 0.000E+00
BIGSUB    1        0  152.87822E+01 0.500E+00 0.000E+00 0.464E+01 0.125E+01 0.171E+03 0.115E-03 0.986E-06 0.120E+01 0.127E+01 0.454E-10 0.954E-09 0.954E-09 0.954E-09 0.954E-09 0.191E-08 0.831E-02 0.222E-04 0.153E-03 .50114E-22 0.000E+00 0.103E+00 0.000E+00 0.000E+00 0.000E+00
BIGSUB    2        0  152.53442E+01 0.130E+01 0.000E+00 0.464E+01 0.183E+01 0.157E+03 0.180E-03 0.195E-04 0.952E+00 0.101E+01 0.839E-10 0.962E-09 0.962E-09 0.345E-07 0.192E-08 0.192E-08 0.946E-02 0.304E-03 0.455E-03 .48493E-14 0.000E+00 0.816E-01 0.000E+00 0.000E+00 0.000E+00
BIGSUB    3        0  152.78363E+01 0.200E+01 0.000E+00 0.460E+01 0.160E+01 0.162E+03 0.000E+00 0.101E-03 0.114E+01 0.121E+01 0.585E-10 0.981E-09 0.981E-09 0.974E-05 0.676E-08 0.196E-08 0.738E-02 0.101E-04 0.736E-04 .85717E-10 0.000E+00 0.100E+00 0.000E+00 0.000E+00 0.000E+00
BIGSUB    1        0  153.87822E+01 0.127E+02 0.000E+00 0.249E+01 0.145E+01 0.182E+03 0.101E+00 0.696E+00 0.119E+01 0.201E+01 0.350E-01 0.283E-01 0.363E-02 0.142E-02 0.160E-03 0.959E-02 0.522E-01 0.535E-04 0.149E-03 .39100E-03 0.758E+00 0.119E+00 0.000E+00 0.000E+00 0.000E+00
BIGSUB    2        0  153.53442E+01 0.117E+02 0.000E+00 0.249E+01 0.146E+01 0.166E+03 0.162E+00 0.427E+00 0.945E+00 0.147E+01 0.167E-01 0.149E-01 0.202E-02 0.146E-02 0.114E-03 0.514E-02 0.508E-01 0.657E-03 0.445E-03 .16631E-03 0.303E+00 0.957E-01 0.000E+00 0.000E+00 0.000E+00
BIGSUB    3        0  153.78363E+01 0.165E+02 0.000E+00 0.245E+01 0.167E+01 0.172E+03 0.256E+01 0.149E+01 0.113E+01 0.280E+01 0.102E+00 0.667E-01 0.848E-02 0.316E-02 0.222E-03 0.206E-01 0.112E+00 0.817E-04 0.717E-04 .14567E-02 0.299E+01 0.135E+00 0.000E+00 0.000E+00 0.000E+00
BIGSUB    1        0  154.87822E+01 0.660E+01 0.000E+00 0.420E+01 0.191E+01 0.184E+03 0.205E+01 0.626E-01 0.119E+01 0.141E+01 0.454E-10 0.261E-02 0.326E-03 0.139E-03 0.138E-04 0.755E-03 0.956E-01 0.696E-04 0.146E-03 .14098E-04 0.212E-09 0.117E+00 0.000E+00 0.000E+00 0.000E+00
BIGSUB    2        0  154.53442E+01 0.890E+01 0.000E+00 0.420E+01 0.281E+01 0.170E+03 0.237E+01 0.190E+00 0.940E+00 0.129E+01 0.839E-10 0.621E-02 0.834E-03 0.119E-02 0.501E-04 0.208E-02 0.109E+00 0.601E-02 0.452E-03 .33738E-04 0.735E-09 0.106E+00 0.000E+00 0.000E+00 0.000E+00
BIGSUB    3        0  154.78363E+01 0.690E+01 0.000E+00 0.413E+01 0.237E+01 0.175E+03 0.152E+01 0.675E-01 0.112E+01 0.139E+01 0.585E-10 0.332E-02 0.418E-03 0.158E-03 0.108E-04 0.923E-03 0.136E+00 0.933E-04 0.704E-04 .17166E-04 0.167E-09 0.117E+00 0.000E+00 0.000E+00 0.000E+00
BIGSUB    1        0  155.87822E+01 0.145E+02 0.000E+00 0.286E+01 0.208E+01 0.187E+03 0.707E+01 0.138E+01 0.119E+01 0.286E+01 0.694E-01 0.555E-01 0.714E-02 0.280E-02 0.321E-03 0.194E-01 0.222E+00 0.139E-03 0.146E-03 .94985E-03 0.162E+01 0.144E+00 0.000E+00 0.000E+00 0.000E+00
BIGSUB    2        0  155.53442E+01 0.102E+02 0.000E+00 0.286E+01 0.213E+01 0.174E+03 0.310E+01 0.341E+00 0.939E+00 0.149E+01 0.119E-01 0.109E-01 0.147E-02 0.112E-02 0.892E-04 0.371E-02 0.163E+00 0.901E-02 0.473E-03 .85804E-04 0.184E+00 0.105E+00 0.000E+00 0.000E+00 0.000E+00
BIGSUB    3        0  155.78363E+01 0.155E+02 0.000E+00 0.280E+01 0.183E+01 0.183E+03 0.376E+01 0.147E+01 0.111E+01 0.289E+01 0.951E-01 0.599E-01 0.761E-02 0.308E-02 0.235E-03 0.181E-01 0.240E+00 0.165E-03 0.701E-04 .11678E-02 0.278E+01 0.149E+00 0.000E+00 0.000E+00 0.000E+00
BIGSUB    1        0  156.87822E+01 0.530E+01 0.000E+00 0.498E+01 0.360E+01 0.186E+03 0.283E+01 0.451E-01 0.120E+01 0.152E+01 0.454E-10 0.195E-02 0.246E-03 0.103E-03 0.100E-04 0.616E-03 0.212E+00 0.122E-03 0.146E-03 .26758E-05 0.121E-09 0.124E+00 0.000E+00 0.000E+00 0.000E+00
BIGSUB    2        0  156.53442E+01 0.710E+01 0.000E+00 0.497E+01 0.358E+01 0.175E+03 0.272E+01 0.687E-01 0.941E+00 0.124E+01 0.839E-10 0.170E-02 0.223E-03 0.308E-03 0.186E-04 0.504E-03 0.186E+00 0.993E-02 0.504E-03 .47169E-05 0.447E-09 0.101E+00 0.000E+00 0.000E+00 0.000E+00
BIGSUB    3        0  156.78363E+01 0.211E+02 0.000E+00 0.490E+01 0.338E+01 0.188E+03 0.854E+01 0.358E+01 0.112E+01 0.515E+01 0.132E+00 0.138E+00 0.176E-01 0.729E-02 0.622E-03 0.424E-01 0.393E+00 0.276E-03 0.715E-04 .36457E-02 0.430E+01 0.209E+00 0.000E+00 0.000E+00 0.000E+00
BIGSUB    1        0  157.87822E+01 0.000E+00 0.000E+00 0.588E+01 0.216E+01 0.184E+03 0.194E+00 0.823E-03 0.120E+01 0.142E+01 0.454E-10 0.392E-04 0.504E-05 0.164E-05 0.178E-06 0.141E-04 0.151E+00 0.897E-04 0.145E-03 .32396E-11 0.000E+00 0.116E+00 0.000E+00 0.000E+00 0.000E+00
BIGSUB    2        0  157.53442E+01 0.000E+00 0.000E+00 0.587E+01 0.243E+01 0.172E+03 0.187E+00 0.455E-03 0.941E+00 0.112E+01 0.839E-10 0.159E-04 0.214E-05 0.339E-05 0.108E-06 0.511E-05 0.133E+00 0.702E-02 0.530E-03 .22096E-11 0.000E+00 0.919E-01 0.000E+00 0.000E+00 0.000E+00
BIGSUB    3        0  157.78363E+01 0.300E+00 0.000E+00 0.580E+01 0.213E+01 0.185E+03 0.864E+00 0.371E-01 0.112E+01 0.150E+01 0.585E-10 0.189E-02 0.240E-03 0.744E-04 0.418E-05 0.640E-03 0.282E+00 0.200E-03 0.727E-04 .29766E-06 0.000E+00 0.126E+00 0.000E+00 0.000E+00 0.000E+00
BIGSUB    1        0  158.87822E+01 0.000E+00 0.000E+00 0.597E+01 0.239E+01 0.182E+03 0.485E-01 0.240E-04 0.121E+01 0.138E+01 0.454E-10 0.110E-05 0.143E-06 0.466E-07 0.565E-08 0.411E-06 0.108E+00 0.665E-04 0.143E-03 .72355E-16 0.000E+00 0.111E+00 0.000E+00 0.000E+00 0.000E+00
BIGSUB    2        0  158.53442E+01 0.000E+00 0.000E+00 0.597E+01 0.268E+01 0.169E+03 0.577E-01 0.676E-05 0.940E+00 0.108E+01 0.839E-10 0.225E-06 0.313E-07 0.567E-07 0.206E-08 0.776E-07 0.951E-01 0.497E-02 0.550E-03 .33876E-17 0.000E+00 0.873E-01 0.000E+00 0.000E+00 0.000E+00
BIGSUB    3        0  158.78363E+01 0.000E+00 0.000E+00 0.590E+01 0.197E+01 0.183E+03 0.311E+00 0.669E-03 0.112E+01 0.139E+01 0.585E-10 0.352E-04 0.448E-05 0.134E-05 0.674E-07 0.122E-04 0.202E+00 0.146E-03 0.734E-04 .31122E-11 0.000E+00 0.114E+00 0.000E+00 0.000E+00 0.000E+00
BIGSUB    1        0  159.87822E+01 0.250E+01 0.000E+00 0.433E+01 0.205E+01 0.182E+03 0.180E-01 0.583E-03 0.121E+01 0.136E+01 0.454E-10 0.341E-07 0.488E-08 0.960E-06 0.661E-07 0.136E-07 0.850E-01 0.542E-04 0.142E-03 .48343E-10 0.000E+00 0.110E+00 0.000E+00 0.000E+00 0.000E+00
BIGSUB    2        0  159.53442E+01 0.150E+01 0.000E+00 0.432E+01 0.228E+01 0.169E+03 0.268E-01 0.564E-04 0.937E+00 0.106E+01 0.839E-10 0.442E-08 0.120E-08 0.111E-06 0.572E-08 0.285E-08 0.720E-01 0.352E-02 0.564E-03 .13693E-12 0.000E+00 0.862E-01 0.000E+00 0.000E+00 0.000E+00
BIGSUB    3        0  159.78363E+01 0.860E+01 0.000E+00 0.426E+01 0.304E+01 0.187E+03 0.132E+01 0.192E+00 0.113E+01 0.158E+01 0.795E-02 0.566E-02 0.715E-03 0.437E-03 0.355E-04 0.151E-02 0.200E+00 0.138E-03 0.740E-04 .48129E-04 0.146E+00 0.122E+00 0.000E+00 0.000E+00 0.000E+00
BIGSUB    1        0  160.87822E+01 0.500E+00 0.000E+00 0.452E+01 0.189E+01 0.181E+03 0.972E-02 0.203E-05 0.120E+01 0.133E+01 0.454E-10 0.160E-08 0.954E-09 0.277E-08 0.106E-08 0.191E-08 0.614E-01 0.409E-04 0.139E-03 .18369E-17 0.000E+00 0.107E+00 0.000E+00 0.000E+00 0.000E+00
BIGSUB    2        0  160.53442E+01 0.430E+01 0.000E+00 0.451E+01 0.225E+01 0.171E+03 0.146E-01 0.220E-02 0.931E+00 0.105E+01 0.424E-05 0.460E-04 0.250E-05 0.216E-04 0.776E-06 0.131E-05 0.661E-01 0.250E-02 0.574E-03 .62370E-07 0.180E-04 0.846E-01 0.000E+00 0.000E+00 0.000E+00
BIGSUB    3        0  160.78363E+01 0.213E+02 0.000E+00 0.445E+01 0.329E+01 0.189E+03 0.111E+02 0.373E+01 0.114E+01 0.530E+01 0.196E+00 0.126E+00 0.160E-01 0.759E-02 0.646E-03 0.385E-01 0.373E+00 0.252E-03 0.760E-04 .33281E-02 0.660E+01 0.215E+00 0.000E+00 0.000E+00 0.000E+00
BIGSUB    1        0  161.87822E+01 0.191E+02 0.000E+00 0.355E+01 0.292E+01 0.188E+03 0.634E+01 0.262E+01 0.121E+01 0.409E+01 0.117E+00 0.941E-01 0.121E-01 0.526E-02 0.608E-03 0.330E-01 0.199E+00 0.122E-03 0.138E-03 .22027E-02 0.319E+01 0.165E+00 0.000E+00 0.000E+00 0.000E+00
BIGSUB    2        0  161.53442E+01 0.640E+01 0.000E+00 0.354E+01 0.223E+01 0.175E+03 0.254E+00 0.282E-01 0.921E+00 0.107E+01 0.374E-03 0.475E-03 0.577E-04 0.857E-04 0.807E-05 0.105E-03 0.789E-01 0.180E-02 0.579E-03 .13995E-05 0.448E-02 0.867E-01 0.000E+00 0.000E+00 0.000E+00
BIGSUB    3        0  161.78363E+01 0.760E+01 0.000E+00 0.349E+01 0.261E+01 0.189E+03 0.445E+01 0.163E+00 0.117E+01 0.173E+01 0.585E-10 0.553E-02 0.698E-03 0.352E-03 0.280E-04 0.158E-02 0.344E+00 0.216E-03 0.781E-04 .27050E-04 0.328E-09 0.144E+00 0.000E+00 0.000E+00 0.000E+00
BIGSUB    1        0  162.87822E+01 0.000E+00 0.000E+00 0.460E+01 0.192E+01 0.185E+03 0.352E+00 0.468E-01 0.121E+01 0.147E+01 0.454E-10 0.210E-02 0.271E-03 0.922E-04 0.967E-05 0.772E-03 0.142E+00 0.893E-04 0.137E-03 .38749E-06 0.000E+00 0.118E+00 0.000E+00 0.000E+00 0.000E+00
BIGSUB    2        0  162.53442E+01 0.000E+00 0.000E+00 0.460E+01 0.210E+01 0.173E+03 0.188E-01 0.787E-04 0.915E+00 0.102E+01 0.839E-10 0.191E-05 0.241E-06 0.210E-06 0.180E-07 0.414E-06 0.569E-01 0.128E-02 0.580E-03 .45103E-12 0.000E+00 0.822E-01 0.000E+00 0.000E+00 0.000E+00
BIGSUB    3        0  162.78363E+01 0.000E+00 0.000E+00 0.453E+01 0.157E+01 0.187E+03 0.706E+00 0.148E-02 0.118E+01 0.149E+01 0.585E-10 0.658E-04 0.835E-05 0.301E-05 0.160E-06 0.215E-04 0.247E+00 0.158E-03 0.797E-04 .25980E-10 0.000E+00 0.123E+00 0.000E+00 0.000E+00 0.000E+00
BIGSUB    1        0  163.87822E+01 0.000E+00 0.000E+00 0.470E+01 0.199E+01 0.183E+03 0.958E-01 0.135E-02 0.122E+01 0.138E+01 0.454E-10 0.610E-04 0.787E-05 0.266E-05 0.277E-06 0.227E-04 0.102E+00 0.656E-04 0.135E-03 .13369E-10 0.000E+00 0.110E+00 0.000E+00 0.000E+00 0.000E+00
BIGSUB    2        0  163.53442E+01 0.000E+00 0.000E+00 0.470E+01 0.218E+01 0.171E+03 0.321E-02 0.130E-05 0.907E+00 0.994E+00 0.839E-10 0.100E-07 0.204E-08 0.188E-08 0.978E-09 0.365E-08 0.412E-01 0.906E-03 0.577E-03 .19112E-18 0.000E+00 0.791E-01 0.000E+00 0.000E+00 0.000E+00
BIGSUB    3        0  163.78363E+01 0.000E+00 0.000E+00 0.464E+01 0.162E+01 0.185E+03 0.276E+00 0.256E-04 0.120E+01 0.144E+01 0.585E-10 0.117E-05 0.149E-06 0.506E-07 0.287E-08 0.401E-06 0.178E+00 0.117E-03 0.807E-04 .12481E-15 0.000E+00 0.117E+00 0.000E+00 0.000E+00 0.000E+00
BIGSUB    1        0  164.87822E+01 0.000E+00 0.000E+00 0.380E+01 0.166E+01 0.182E+03 0.311E-01 0.418E-04 0.122E+01 0.135E+01 0.454E-10 0.186E-05 0.241E-06 0.816E-07 0.903E-08 0.697E-06 0.732E-01 0.486E-04 0.132E-03 .40903E-15 0.000E+00 0.106E+00 0.000E+00 0.000E+00 0.000E+00
BIGSUB    2        0  164.53442E+01 0.000E+00 0.000E+00 0.380E+01 0.182E+01 0.169E+03 0.136E-02 0.992E-06 0.900E+00 0.976E+00 0.839E-10 0.981E-09 0.962E-09 0.963E-09 0.962E-09 0.192E-08 0.300E-01 0.645E-03 0.573E-03 .15375E-21 0.000E+00 0.766E-01 0.000E+00 0.000E+00 0.000E+00
BIGSUB    3        0  164.78363E+01 0.000E+00 0.000E+00 0.375E+01 0.137E+01 0.183E+03 0.122E+00 0.118E-05 0.121E+01 0.140E+01 0.585E-10 0.238E-07 0.361E-08 0.164E-08 0.981E-09 0.936E-08 0.129E+00 0.866E-04 0.812E-04 .11531E-20 0.000E+00 0.112E+00 0.000E+00 0.000E+00 0.000E+00
BIGSUB    1        0  165.87822E+01 0.127E+02 0.000E+00 0.503E+01 0.378E+01 0.187E+03 0.295E+01 0.807E+00 0.122E+01 0.223E+01 0.309E-01 0.258E-01 0.331E-02 0.169E-02 0.179E-03 0.873E-02 0.141E+00 0.820E-04 0.130E-03 .34779E-03 0.686E+00 0.127E+00 0.000E+00 0.000E+00 0.000E+00
BIGSUB    2        0  165.53442E+01 0.480E+01 0.000E+00 0.503E+01 0.260E+01 0.171E+03 0.597E-03 0.494E-02 0.890E+00 0.979E+00 0.217E-04 0.738E-04 0.588E-05 0.312E-04 0.154E-05 0.690E-05 0.383E-01 0.472E-03 0.565E-03 .12262E-06 0.778E-04 0.770E-01 0.000E+00 0.000E+00 0.000E+00
BIGSUB    3        0  165.78363E+01 0.740E+01 0.000E+00 0.496E+01 0.345E+01 0.187E+03 0.473E+00 0.874E-01 0.122E+01 0.150E+01 0.283E-02 0.218E-02 0.272E-03 0.209E-03 0.172E-04 0.519E-03 0.132E+00 0.875E-04 0.813E-04 .16531E-04 0.521E-01 0.117E+00 0.000E+00 0.000E+00 0.000E+00
BIGSUB    1        0  166.87822E+01 0.530E+01 0.000E+00 0.245E+01 0.190E+01 0.189E+03 0.144E+01 0.315E-01 0.122E+01 0.146E+01 0.454E-10 0.113E-02 0.140E-03 0.773E-04 0.664E-05 0.322E-03 0.141E+00 0.757E-04 0.128E-03 .21830E-05 0.126E-09 0.119E+00 0.000E+00 0.000E+00 0.000E+00
BIGSUB    2        0  166.53442E+01 0.480E+01 0.000E+00 0.245E+01 0.167E+01 0.174E+03 0.127E+00 0.549E-02 0.879E+00 0.983E+00 0.428E-05 0.804E-04 0.673E-05 0.312E-04 0.169E-05 0.831E-05 0.525E-01 0.350E-03 0.556E-03 .12319E-06 0.116E-04 0.803E-01 0.000E+00 0.000E+00 0.000E+00
BIGSUB    3        0  166.78363E+01 0.690E+01 0.000E+00 0.241E+01 0.193E+01 0.189E+03 0.259E+01 0.702E-01 0.123E+01 0.152E+01 0.585E-10 0.172E-02 0.214E-03 0.164E-03 0.137E-04 0.402E-03 0.159E+00 0.922E-04 0.814E-04 .11503E-04 0.227E-09 0.127E+00 0.000E+00 0.000E+00 0.000E+00
