1
    SWAT Sep 7    VER 2018/Rev 670                                                                       0/ 0/   0      0: 0: 0

    General Input/Output section (file.cio):                                        
    11/27/2018 12:00:00 AM ARCGIS-SWAT interface AV                                 
                                                                                    


LULC  HRU       GIS  SUB  MGT  MON   AREAkm2  PRECIPmm
COTS    1 000010001    1    0    1.18540E+00     5.800
COTS    1 000010001    1    0    2.18540E+00     0.500
COTS    1 000010001    1    0    3.18540E+00     0.000
COTS    1 000010001    1    0    4.18540E+00     0.000
COTS    1 000010001    1    0    5.18540E+00     0.000
COTS    1 000010001    1    0    6.18540E+00     0.000
COTS    1 000010001    1    0    7.18540E+00     0.000
COTS    1 000010001    1    0    8.18540E+00     0.000
COTS    1 000010001    1    0    9.18540E+00     0.000
COTS    1 000010001    1    0   10.18540E+00     0.000
COTS    1 000010001    1    0   11.18540E+00     0.000
COTS    1 000010001    1    0   12.18540E+00     0.000
COTS    1 000010001    1    0   13.18540E+00     0.000
COTS    1 000010001    1    0   14.18540E+00     0.000
COTS    1 000010001    1    0   15.18540E+00     0.000
COTS    1 000010001    1    0   16.18540E+00     1.500
COTS    1 000010001    1    0   17.18540E+00     0.300
COTS    1 000010001    1    0   18.18540E+00     0.000
COTS    1 000010001    1    0   19.18540E+00     0.000
COTS    1 000010001    1    0   20.18540E+00     0.000
COTS    1 000010001    1    0   21.18540E+00     0.000
COTS    1 000010001    1    0   22.18540E+00     1.500
COTS    1 000010001    1    0   23.18540E+00     0.300
COTS    1 000010001    1    0   24.18540E+00     0.000
COTS    1 000010001    1    0   25.18540E+00     0.000
COTS    1 000010001    1    0   26.18540E+00     0.000
COTS    1 000010001    1    0   27.18540E+00     0.000
COTS    1 000010001    1    0   28.18540E+00     0.000
COTS    1 000010001    1    0   29.18540E+00     0.000
COTS    1 000010001    1    0   30.18540E+00     2.000
COTS    1 000010001    1    0   31.18540E+00     0.000
COTS    1 000010001    1    0   32.18540E+00     0.000
COTS    1 000010001    1    0   33.18540E+00     0.000
COTS    1 000010001    1    0   34.18540E+00     0.000
COTS    1 000010001    1    0   35.18540E+00     1.500
COTS    1 000010001    1    0   36.18540E+00     0.000
COTS    1 000010001    1    0   37.18540E+00    16.500
COTS    1 000010001    1    0   38.18540E+00     0.800
COTS    1 000010001    1    0   39.18540E+00     0.000
COTS    1 000010001    1    0   40.18540E+00     0.500
COTS    1 000010001    1    0   41.18540E+00     4.300
COTS    1 000010001    1    0   42.18540E+00     0.000
COTS    1 000010001    1    0   43.18540E+00     0.000
COTS    1 000010001    1    0   44.18540E+00     0.000
COTS    1 000010001    1    0   45.18540E+00     0.000
COTS    1 000010001    1    0   46.18540E+00     0.000
COTS    1 000010001    1    0   47.18540E+00    30.500
COTS    1 000010001    1    0   48.18540E+00     0.300
COTS    1 000010001    1    0   49.18540E+00     0.000
COTS    1 000010001    1    0   50.18540E+00     0.000
COTS    1 000010001    1    0   51.18540E+00     0.000
COTS    1 000010001    1    0   52.18540E+00     0.000
COTS    1 000010001    1    0   53.18540E+00    22.400
COTS    1 000010001    1    0   54.18540E+00     0.300
COTS    1 000010001    1    0   55.18540E+00     0.000
COTS    1 000010001    1    0   56.18540E+00     0.000
COTS    1 000010001    1    0   57.18540E+00     8.600
COTS    1 000010001    1    0   58.18540E+00    15.200
COTS    1 000010001    1    0   59.18540E+00     0.000
COTS    1 000010001    1    0   60.18540E+00    23.900
COTS    1 000010001    1    0   61.18540E+00     1.000
COTS    1 000010001    1    0   62.18540E+00     3.800
COTS    1 000010001    1    0   63.18540E+00     5.300
COTS    1 000010001    1    0   64.18540E+00     0.800
COTS    1 000010001    1    0   65.18540E+00     0.500
COTS    1 000010001    1    0   66.18540E+00    19.800
COTS    1 000010001    1    0   67.18540E+00     0.300
COTS    1 000010001    1    0   68.18540E+00     4.100
COTS    1 000010001    1    0   69.18540E+00     0.000
COTS    1 000010001    1    0   70.18540E+00     0.000
COTS    1 000010001    1    0   71.18540E+00     0.000
COTS    1 000010001    1    0   72.18540E+00     4.100
COTS    1 000010001    1    0   73.18540E+00     0.500
COTS    1 000010001    1    0   74.18540E+00    14.700
COTS    1 000010001    1    0   75.18540E+00     0.500
COTS    1 000010001    1    0   76.18540E+00    24.400
COTS    1 000010001    1    0   77.18540E+00     2.500
COTS    1 000010001    1    0   78.18540E+00     5.100
COTS    1 000010001    1    0   79.18540E+00    27.900
COTS    1 000010001    1    0   80.18540E+00     0.000
COTS    1 000010001    1    0   81.18540E+00     0.000
COTS    1 000010001    1    0   82.18540E+00     0.000
COTS    1 000010001    1    0   83.18540E+00     0.000
COTS    1 000010001    1    0   84.18540E+00     0.000
COTS    1 000010001    1    0   85.18540E+00     0.000
COTS    1 000010001    1    0   86.18540E+00     0.000
COTS    1 000010001    1    0   87.18540E+00     0.000
COTS    1 000010001    1    0   88.18540E+00     0.000
COTS    1 000010001    1    0   89.18540E+00     6.100
COTS    1 000010001    1    0   90.18540E+00     0.000
COTS    1 000010001    1    0   91.18540E+00     0.000
COTS    1 000010001    1    0   92.18540E+00     0.000
COTS    1 000010001    1    0   93.18540E+00     0.000
COTS    1 000010001    1    0   94.18540E+00     0.000
COTS    1 000010001    1    0   95.18540E+00     1.300
COTS    1 000010001    1    0   96.18540E+00     0.000
COTS    1 000010001    1    0   97.18540E+00    20.300
COTS    1 000010001    1    0   98.18540E+00    46.200
COTS    1 000010001    1    0   99.18540E+00     7.400
COTS    1 000010001    1    0  100.18540E+00     5.100
COTS    1 000010001    1    0  101.18540E+00     0.300
COTS    1 000010001    1    0  102.18540E+00     0.000
COTS    1 000010001    1    0  103.18540E+00     0.000
COTS    1 000010001    1    0  104.18540E+00     0.000
COTS    1 000010001    1    0  105.18540E+00     0.000
COTS    1 000010001    1    0  106.18540E+00     0.000
COTS    1 000010001    1    0  107.18540E+00     0.800
COTS    1 000010001    1    0  108.18540E+00     0.000
COTS    1 000010001    1    0  109.18540E+00     0.000
COTS    1 000010001    1    0  110.18540E+00     0.000
COTS    1 000010001    1    0  111.18540E+00     0.000
COTS    1 000010001    1    0  112.18540E+00     0.000
COTS    1 000010001    1    0  113.18540E+00     0.000
COTS    1 000010001    1    0  114.18540E+00     0.000
COTS    1 000010001    1    0  115.18540E+00    38.900
COTS    1 000010001    1    0  116.18540E+00     0.800
COTS    1 000010001    1    0  117.18540E+00     0.000
COTS    1 000010001    1    0  118.18540E+00     0.000
COTS    1 000010001    1    0  119.18540E+00     0.000
COTS    1 000010001    1    0  120.18540E+00     6.900
COTS    1 000010001    1    0  121.18540E+00     0.000
COTS    1 000010001    1    0  122.18540E+00    15.000
COTS    1 000010001    1    0  123.18540E+00     1.800
COTS    1 000010001    1    0  124.18540E+00     0.000
COTS    1 000010001    1    0  125.18540E+00     0.000
COTS    1 000010001    1    0  126.18540E+00     0.000
COTS    1 000010001    1    0  127.18540E+00     0.000
COTS    1 000010001    1    0  128.18540E+00     0.000
COTS    1 000010001    1    0  129.18540E+00     0.000
COTS    1 000010001    1    0  130.18540E+00     0.000
COTS    1 000010001    1    0  131.18540E+00    11.200
COTS    1 000010001    1    0  132.18540E+00     0.000
COTS    1 000010001    1    0  133.18540E+00     0.000
COTS    1 000010001    1    0  134.18540E+00     0.000
COTS    1 000010001    1    0  135.18540E+00     0.000
COTS    1 000010001    1    0  136.18540E+00     0.000
COTS    1 000010001    1    0  137.18540E+00     0.000
COTS    1 000010001    1    0  138.18540E+00     8.400
COTS    1 000010001    1    0  139.18540E+00     2.000
COTS    1 000010001    1    0  140.18540E+00     0.000
COTS    1 000010001    1    0  141.18540E+00     0.000
COTS    1 000010001    1    0  142.18540E+00    48.800
COTS    1 000010001    1    0  143.18540E+00     0.000
COTS    1 000010001    1    0  144.18540E+00     0.000
COTS    1 000010001    1    0  145.18540E+00     0.000
COTS    1 000010001    1    0  146.18540E+00     0.800
COTS    1 000010001    1    0  147.18540E+00     0.300
COTS    1 000010001    1    0  148.18540E+00     0.000
COTS    1 000010001    1    0  149.18540E+00     0.000
COTS    1 000010001    1    0  150.18540E+00     0.000
COTS    1 000010001    1    0  151.18540E+00     0.000
COTS    1 000010001    1    0  152.18540E+00     0.000
COTS    1 000010001    1    0  153.18540E+00     0.000
COTS    1 000010001    1    0  154.18540E+00     9.400
COTS    1 000010001    1    0  155.18540E+00     0.500
COTS    1 000010001    1    0  156.18540E+00     0.000
COTS    1 000010001    1    0  157.18540E+00    10.200
COTS    1 000010001    1    0  158.18540E+00    26.200
COTS    1 000010001    1    0  159.18540E+00     1.300
COTS    1 000010001    1    0  160.18540E+00     0.000
COTS    1 000010001    1    0  161.18540E+00     0.000
COTS    1 000010001    1    0  162.18540E+00     3.600
COTS    1 000010001    1    0  163.18540E+00    10.400
COTS    1 000010001    1    0  164.18540E+00     9.900
COTS    1 000010001    1    0  165.18540E+00     2.500
COTS    1 000010001    1    0  166.18540E+00     0.300
COTS    1 000010001    1    0  167.18540E+00    15.200
COTS    1 000010001    1    0  168.18540E+00     6.100
COTS    1 000010001    1    0  169.18540E+00     2.300
COTS    1 000010001    1    0  170.18540E+00    11.400
COTS    1 000010001    1    0  171.18540E+00    33.500
COTS    1 000010001    1    0  172.18540E+00     0.000
COTS    1 000010001    1    0  173.18540E+00     0.000
COTS    1 000010001    1    0  174.18540E+00     0.000
COTS    1 000010001    1    0  175.18540E+00     0.000
COTS    1 000010001    1    0  176.18540E+00     0.000
COTS    1 000010001    1    0  177.18540E+00     0.000
COTS    1 000010001    1    0  178.18540E+00     0.000
COTS    1 000010001    1    0  179.18540E+00     0.000
COTS    1 000010001    1    0  180.18540E+00     3.300
COTS    1 000010001    1    0  181.18540E+00    13.000
COTS    1 000010001    1    0  182.18540E+00     4.300
COTS    1 000010001    1    0  183.18540E+00    12.700
COTS    1 000010001    1    0  184.18540E+00     0.500
COTS    1 000010001    1    0  185.18540E+00     0.300
COTS    1 000010001    1    0  186.18540E+00     9.900
COTS    1 000010001    1    0  187.18540E+00     4.300
COTS    1 000010001    1    0  188.18540E+00     2.300
COTS    1 000010001    1    0  189.18540E+00     0.000
COTS    1 000010001    1    0  190.18540E+00     0.000
COTS    1 000010001    1    0  191.18540E+00     0.000
COTS    1 000010001    1    0  192.18540E+00    14.000
COTS    1 000010001    1    0  193.18540E+00    10.200
COTS    1 000010001    1    0  194.18540E+00     0.000
COTS    1 000010001    1    0  195.18540E+00     0.000
COTS    1 000010001    1    0  196.18540E+00     1.000
COTS    1 000010001    1    0  197.18540E+00     0.000
COTS    1 000010001    1    0  198.18540E+00     1.800
COTS    1 000010001    1    0  199.18540E+00     0.000
COTS    1 000010001    1    0  200.18540E+00     0.300
COTS    1 000010001    1    0  201.18540E+00     0.000
COTS    1 000010001    1    0  202.18540E+00     0.000
COTS    1 000010001    1    0  203.18540E+00    34.300
COTS    1 000010001    1    0  204.18540E+00    17.300
COTS    1 000010001    1    0  205.18540E+00     0.000
COTS    1 000010001    1    0  206.18540E+00     0.000
COTS    1 000010001    1    0  207.18540E+00     0.000
COTS    1 000010001    1    0  208.18540E+00     0.000
COTS    1 000010001    1    0  209.18540E+00     0.000
COTS    1 000010001    1    0  210.18540E+00     0.000
COTS    1 000010001    1    0  211.18540E+00    17.800
COTS    1 000010001    1    0  212.18540E+00     5.100
COTS    1 000010001    1    0  213.18540E+00    17.000
COTS    1 000010001    1    0  214.18540E+00     0.300
COTS    1 000010001    1    0  215.18540E+00    19.300
COTS    1 000010001    1    0  216.18540E+00     7.600
COTS    1 000010001    1    0  217.18540E+00     0.000
COTS    1 000010001    1    0  218.18540E+00     0.800
COTS    1 000010001    1    0  219.18540E+00     6.400
COTS    1 000010001    1    0  220.18540E+00     0.000
COTS    1 000010001    1    0  221.18540E+00     0.000
COTS    1 000010001    1    0  222.18540E+00     0.000
COTS    1 000010001    1    0  223.18540E+00     0.500
COTS    1 000010001    1    0  224.18540E+00    17.800
COTS    1 000010001    1    0  225.18540E+00     0.000
COTS    1 000010001    1    0  226.18540E+00     0.500
COTS    1 000010001    1    0  227.18540E+00     0.000
COTS    1 000010001    1    0  228.18540E+00     7.400
COTS    1 000010001    1    0  229.18540E+00     0.500
COTS    1 000010001    1    0  230.18540E+00     2.800
COTS    1 000010001    1    0  231.18540E+00     2.500
COTS    1 000010001    1    0  232.18540E+00     0.000
COTS    1 000010001    1    0  233.18540E+00     0.000
COTS    1 000010001    1    0  234.18540E+00     1.000
COTS    1 000010001    1    0  235.18540E+00     0.000
COTS    1 000010001    1    0  236.18540E+00     0.000
COTS    1 000010001    1    0  237.18540E+00     4.300
COTS    1 000010001    1    0  238.18540E+00     0.300
COTS    1 000010001    1    0  239.18540E+00    15.200
COTS    1 000010001    1    0  240.18540E+00     1.500
COTS    1 000010001    1    0  241.18540E+00     2.500
COTS    1 000010001    1    0  242.18540E+00     0.300
COTS    1 000010001    1    0  243.18540E+00     0.000
COTS    1 000010001    1    0  244.18540E+00    18.300
COTS    1 000010001    1    0  245.18540E+00     0.300
COTS    1 000010001    1    0  246.18540E+00     0.500
COTS    1 000010001    1    0  247.18540E+00     0.800
COTS    1 000010001    1    0  248.18540E+00    12.500
COTS    1 000010001    1    0  249.18540E+00     1.300
COTS    1 000010001    1    0  250.18540E+00     0.000
COTS    1 000010001    1    0  251.18540E+00     0.000
COTS    1 000010001    1    0  252.18540E+00     0.000
COTS    1 000010001    1    0  253.18540E+00     0.000
COTS    1 000010001    1    0  254.18540E+00     0.000
COTS    1 000010001    1    0  255.18540E+00     0.000
COTS    1 000010001    1    0  256.18540E+00     0.000
COTS    1 000010001    1    0  257.18540E+00     0.000
COTS    1 000010001    1    0  258.18540E+00     0.000
COTS    1 000010001    1    0  259.18540E+00     0.000
COTS    1 000010001    1    0  260.18540E+00     0.000
COTS    1 000010001    1    0  261.18540E+00     0.000
COTS    1 000010001    1    0  262.18540E+00     0.000
COTS    1 000010001    1    0  263.18540E+00     0.000
COTS    1 000010001    1    0  264.18540E+00     0.500
COTS    1 000010001    1    0  265.18540E+00    18.300
COTS    1 000010001    1    0  266.18540E+00     3.600
COTS    1 000010001    1    0  267.18540E+00     0.000
COTS    1 000010001    1    0  268.18540E+00     0.000
COTS    1 000010001    1    0  269.18540E+00     0.000
COTS    1 000010001    1    0  270.18540E+00     0.000
COTS    1 000010001    1    0  271.18540E+00     0.000
COTS    1 000010001    1    0  272.18540E+00     0.000
COTS    1 000010001    1    0  273.18540E+00     0.000
COTS    1 000010001    1    0  274.18540E+00     0.000
COTS    1 000010001    1    0  275.18540E+00     0.000
COTS    1 000010001    1    0  276.18540E+00     0.000
COTS    1 000010001    1    0  277.18540E+00     0.000
COTS    1 000010001    1    0  278.18540E+00     0.000
COTS    1 000010001    1    0  279.18540E+00     0.000
COTS    1 000010001    1    0  280.18540E+00    45.000
COTS    1 000010001    1    0  281.18540E+00     0.000
COTS    1 000010001    1    0  282.18540E+00     0.000
COTS    1 000010001    1    0  283.18540E+00     0.300
COTS    1 000010001    1    0  284.18540E+00     1.300
COTS    1 000010001    1    0  285.18540E+00     1.300
COTS    1 000010001    1    0  286.18540E+00     0.000
COTS    1 000010001    1    0  287.18540E+00     0.300
COTS    1 000010001    1    0  288.18540E+00     0.000
COTS    1 000010001    1    0  289.18540E+00     0.000
COTS    1 000010001    1    0  290.18540E+00     0.000
COTS    1 000010001    1    0  291.18540E+00     0.000
COTS    1 000010001    1    0  292.18540E+00     0.000
COTS    1 000010001    1    0  293.18540E+00     0.000
COTS    1 000010001    1    0  294.18540E+00     0.000
COTS    1 000010001    1    0  295.18540E+00     0.000
COTS    1 000010001    1    0  296.18540E+00     0.000
COTS    1 000010001    1    0  297.18540E+00     0.000
COTS    1 000010001    1    0  298.18540E+00     0.000
COTS    1 000010001    1    0  299.18540E+00    15.500
COTS    1 000010001    1    0  300.18540E+00     2.500
COTS    1 000010001    1    0  301.18540E+00    31.800
COTS    1 000010001    1    0  302.18540E+00     0.000
COTS    1 000010001    1    0  303.18540E+00     0.000
COTS    1 000010001    1    0  304.18540E+00     0.000
COTS    1 000010001    1    0  305.18540E+00     0.000
COTS    1 000010001    1    0  306.18540E+00     0.000
COTS    1 000010001    1    0  307.18540E+00     0.000
COTS    1 000010001    1    0  308.18540E+00    13.500
COTS    1 000010001    1    0  309.18540E+00     0.300
COTS    1 000010001    1    0  310.18540E+00     0.000
COTS    1 000010001    1    0  311.18540E+00     0.000
COTS    1 000010001    1    0  312.18540E+00     0.000
COTS    1 000010001    1    0  313.18540E+00     0.000
COTS    1 000010001    1    0  314.18540E+00     0.000
COTS    1 000010001    1    0  315.18540E+00     0.000
COTS    1 000010001    1    0  316.18540E+00     0.000
COTS    1 000010001    1    0  317.18540E+00     0.000
COTS    1 000010001    1    0  318.18540E+00     0.000
COTS    1 000010001    1    0  319.18540E+00     0.000
COTS    1 000010001    1    0  320.18540E+00     0.000
COTS    1 000010001    1    0  321.18540E+00     0.000
COTS    1 000010001    1    0  322.18540E+00     1.000
COTS    1 000010001    1    0  323.18540E+00    17.300
COTS    1 000010001    1    0  324.18540E+00     0.000
COTS    1 000010001    1    0  325.18540E+00     0.000
COTS    1 000010001    1    0  326.18540E+00     0.000
COTS    1 000010001    1    0  327.18540E+00     0.000
COTS    1 000010001    1    0  328.18540E+00     6.600
COTS    1 000010001    1    0  329.18540E+00     0.000
COTS    1 000010001    1    0  330.18540E+00     0.000
COTS    1 000010001    1    0  331.18540E+00     0.000
COTS    1 000010001    1    0  332.18540E+00    11.700
COTS    1 000010001    1    0  333.18540E+00     0.000
COTS    1 000010001    1    0  334.18540E+00     0.000
COTS    1 000010001    1    0  335.18540E+00     0.000
COTS    1 000010001    1    0  336.18540E+00     0.000
COTS    1 000010001    1    0  337.18540E+00     0.000
COTS    1 000010001    1    0  338.18540E+00     3.100
COTS    1 000010001    1    0  339.18540E+00     0.300
COTS    1 000010001    1    0  340.18540E+00     0.000
COTS    1 000010001    1    0  341.18540E+00     0.000
COTS    1 000010001    1    0  342.18540E+00     0.000
COTS    1 000010001    1    0  343.18540E+00     0.000
COTS    1 000010001    1    0  344.18540E+00    17.500
COTS    1 000010001    1    0  345.18540E+00     0.000
COTS    1 000010001    1    0  346.18540E+00     0.000
COTS    1 000010001    1    0  347.18540E+00     3.600
COTS    1 000010001    1    0  348.18540E+00    14.700
COTS    1 000010001    1    0  349.18540E+00     0.000
COTS    1 000010001    1    0  350.18540E+00     0.000
COTS    1 000010001    1    0  351.18540E+00     9.900
COTS    1 000010001    1    0  352.18540E+00     0.000
COTS    1 000010001    1    0  353.18540E+00     0.000
COTS    1 000010001    1    0  354.18540E+00     0.000
COTS    1 000010001    1    0  355.18540E+00     0.000
COTS    1 000010001    1    0  356.18540E+00     0.000
COTS    1 000010001    1    0  357.18540E+00     4.300
COTS    1 000010001    1    0  358.18540E+00     1.000
COTS    1 000010001    1    0  359.18540E+00     0.000
COTS    1 000010001    1    0  360.18540E+00     0.000
COTS    1 000010001    1    0  361.18540E+00     0.000
COTS    1 000010001    1    0  362.18540E+00     0.000
COTS    1 000010001    1    0  363.18540E+00     0.000
COTS    1 000010001    1    0  364.18540E+00     2.000
COTS    1 000010001    1    0  365.18540E+00     0.000
COTS    1 000010001    1    0    1.18540E+00     0.000
COTS    1 000010001    1    0    2.18540E+00     0.000
COTS    1 000010001    1    0    3.18540E+00     0.000
COTS    1 000010001    1    0    4.18540E+00     0.000
COTS    1 000010001    1    0    5.18540E+00     7.100
COTS    1 000010001    1    0    6.18540E+00     0.000
COTS    1 000010001    1    0    7.18540E+00     0.000
COTS    1 000010001    1    0    8.18540E+00     0.300
COTS    1 000010001    1    0    9.18540E+00     4.100
COTS    1 000010001    1    0   10.18540E+00     0.000
COTS    1 000010001    1    0   11.18540E+00     0.000
COTS    1 000010001    1    0   12.18540E+00     0.000
COTS    1 000010001    1    0   13.18540E+00     0.000
COTS    1 000010001    1    0   14.18540E+00     0.000
COTS    1 000010001    1    0   15.18540E+00     0.000
COTS    1 000010001    1    0   16.18540E+00     0.000
COTS    1 000010001    1    0   17.18540E+00     0.000
COTS    1 000010001    1    0   18.18540E+00     3.100
COTS    1 000010001    1    0   19.18540E+00     0.300
COTS    1 000010001    1    0   20.18540E+00     0.000
COTS    1 000010001    1    0   21.18540E+00     0.000
COTS    1 000010001    1    0   22.18540E+00     0.000
COTS    1 000010001    1    0   23.18540E+00     0.000
COTS    1 000010001    1    0   24.18540E+00     0.000
COTS    1 000010001    1    0   25.18540E+00     2.000
COTS    1 000010001    1    0   26.18540E+00    55.100
COTS    1 000010001    1    0   27.18540E+00     0.000
COTS    1 000010001    1    0   28.18540E+00     0.000
COTS    1 000010001    1    0   29.18540E+00     0.000
COTS    1 000010001    1    0   30.18540E+00     0.000
COTS    1 000010001    1    0   31.18540E+00     0.000
COTS    1 000010001    1    0   32.18540E+00     2.800
COTS    1 000010001    1    0   33.18540E+00     3.300
COTS    1 000010001    1    0   34.18540E+00     0.000
COTS    1 000010001    1    0   35.18540E+00     0.000
COTS    1 000010001    1    0   36.18540E+00     0.000
COTS    1 000010001    1    0   37.18540E+00    21.800
COTS    1 000010001    1    0   38.18540E+00     0.000
COTS    1 000010001    1    0   39.18540E+00     0.000
COTS    1 000010001    1    0   40.18540E+00     0.000
COTS    1 000010001    1    0   41.18540E+00     0.800
COTS    1 000010001    1    0   42.18540E+00     6.600
COTS    1 000010001    1    0   43.18540E+00    28.200
COTS    1 000010001    1    0   44.18540E+00     0.000
COTS    1 000010001    1    0   45.18540E+00    26.400
COTS    1 000010001    1    0   46.18540E+00     0.800
COTS    1 000010001    1    0   47.18540E+00     0.000
COTS    1 000010001    1    0   48.18540E+00     0.300
COTS    1 000010001    1    0   49.18540E+00     0.000
COTS    1 000010001    1    0   50.18540E+00     0.000
COTS    1 000010001    1    0   51.18540E+00     0.000
COTS    1 000010001    1    0   52.18540E+00     0.000
COTS    1 000010001    1    0   53.18540E+00     0.000
COTS    1 000010001    1    0   54.18540E+00     3.800
COTS    1 000010001    1    0   55.18540E+00     1.300
COTS    1 000010001    1    0   56.18540E+00     5.800
COTS    1 000010001    1    0   57.18540E+00     0.000
COTS    1 000010001    1    0   58.18540E+00     0.000
COTS    1 000010001    1    0   59.18540E+00     0.000
COTS    1 000010001    1    0   60.18540E+00     0.000
COTS    1 000010001    1    0   61.18540E+00     0.000
COTS    1 000010001    1    0   62.18540E+00     0.000
COTS    1 000010001    1    0   63.18540E+00     0.000
COTS    1 000010001    1    0   64.18540E+00     0.000
COTS    1 000010001    1    0   65.18540E+00     0.000
COTS    1 000010001    1    0   66.18540E+00     1.000
COTS    1 000010001    1    0   67.18540E+00     0.000
COTS    1 000010001    1    0   68.18540E+00     0.000
COTS    1 000010001    1    0   69.18540E+00     0.000
COTS    1 000010001    1    0   70.18540E+00     0.000
COTS    1 000010001    1    0   71.18540E+00     0.000
COTS    1 000010001    1    0   72.18540E+00     0.000
COTS    1 000010001    1    0   73.18540E+00     0.000
COTS    1 000010001    1    0   74.18540E+00     0.000
COTS    1 000010001    1    0   75.18540E+00     0.000
COTS    1 000010001    1    0   76.18540E+00     0.300
COTS    1 000010001    1    0   77.18540E+00     0.000
COTS    1 000010001    1    0   78.18540E+00     0.000
COTS    1 000010001    1    0   79.18540E+00     0.000
COTS    1 000010001    1    0   80.18540E+00     0.000
COTS    1 000010001    1    0   81.18540E+00     0.000
COTS    1 000010001    1    0   82.18540E+00     0.000
COTS    1 000010001    1    0   83.18540E+00     0.000
COTS    1 000010001    1    0   84.18540E+00     0.000
COTS    1 000010001    1    0   85.18540E+00     0.000
COTS    1 000010001    1    0   86.18540E+00     0.000
COTS    1 000010001    1    0   87.18540E+00     0.000
COTS    1 000010001    1    0   88.18540E+00     0.000
COTS    1 000010001    1    0   89.18540E+00     0.000
COTS    1 000010001    1    0   90.18540E+00     2.500
COTS    1 000010001    1    0   91.18540E+00     3.100
COTS    1 000010001    1    0   92.18540E+00     0.000
COTS    1 000010001    1    0   93.18540E+00     0.000
COTS    1 000010001    1    0   94.18540E+00     0.000
COTS    1 000010001    1    0   95.18540E+00     0.000
COTS    1 000010001    1    0   96.18540E+00     0.000
COTS    1 000010001    1    0   97.18540E+00     0.000
COTS    1 000010001    1    0   98.18540E+00     0.000
COTS    1 000010001    1    0   99.18540E+00     5.600
COTS    1 000010001    1    0  100.18540E+00     0.000
COTS    1 000010001    1    0  101.18540E+00     0.000
COTS    1 000010001    1    0  102.18540E+00     0.000
COTS    1 000010001    1    0  103.18540E+00     0.500
COTS    1 000010001    1    0  104.18540E+00     6.600
COTS    1 000010001    1    0  105.18540E+00     0.000
COTS    1 000010001    1    0  106.18540E+00     0.000
COTS    1 000010001    1    0  107.18540E+00     0.000
COTS    1 000010001    1    0  108.18540E+00     0.000
COTS    1 000010001    1    0  109.18540E+00     0.000
COTS    1 000010001    1    0  110.18540E+00     0.000
COTS    1 000010001    1    0  111.18540E+00     0.000
COTS    1 000010001    1    0  112.18540E+00     0.000
COTS    1 000010001    1    0  113.18540E+00     0.000
COTS    1 000010001    1    0  114.18540E+00     0.000
COTS    1 000010001    1    0  115.18540E+00     0.000
COTS    1 000010001    1    0  116.18540E+00     0.000
COTS    1 000010001    1    0  117.18540E+00    20.100
COTS    1 000010001    1    0  118.18540E+00     0.000
COTS    1 000010001    1    0  119.18540E+00     0.000
COTS    1 000010001    1    0  120.18540E+00     0.000
COTS    1 000010001    1    0  121.18540E+00    26.900
PNUT    1 000010001    1    0  122.18540E+00    14.700
PNUT    1 000010001    1    0  123.18540E+00    49.800
PNUT    1 000010001    1    0  124.18540E+00     0.300
PNUT    1 000010001    1    0  125.18540E+00     0.000
PNUT    1 000010001    1    0  126.18540E+00     0.000
PNUT    1 000010001    1    0  127.18540E+00     0.000
PNUT    1 000010001    1    0  128.18540E+00     0.000
PNUT    1 000010001    1    0  129.18540E+00     0.000
PNUT    1 000010001    1    0  130.18540E+00     0.000
PNUT    1 000010001    1    0  131.18540E+00     0.000
PNUT    1 000010001    1    0  132.18540E+00     0.000
PNUT    1 000010001    1    0  133.18540E+00     0.000
PNUT    1 000010001    1    0  134.18540E+00     0.000
PNUT    1 000010001    1    0  135.18540E+00     0.000
PNUT    1 000010001    1    0  136.18540E+00     0.000
PNUT    1 000010001    1    0  137.18540E+00     4.300
PNUT    1 000010001    1    0  138.18540E+00     0.000
PNUT    1 000010001    1    0  139.18540E+00     0.000
PNUT    1 000010001    1    0  140.18540E+00     0.000
PNUT    1 000010001    1    0  141.18540E+00    34.000
PNUT    1 000010001    1    0  142.18540E+00     0.000
PNUT    1 000010001    1    0  143.18540E+00     0.000
PNUT    1 000010001    1    0  144.18540E+00     0.000
PNUT    1 000010001    1    0  145.18540E+00     0.000
PNUT    1 000010001    1    0  146.18540E+00     0.000
PNUT    1 000010001    1    0  147.18540E+00     0.000
PNUT    1 000010001    1    0  148.18540E+00     0.000
PNUT    1 000010001    1    0  149.18540E+00     0.000
PNUT    1 000010001    1    0  150.18540E+00     0.000
PNUT    1 000010001    1    0  151.18540E+00     0.000
PNUT    1 000010001    1    0  152.18540E+00     0.500
PNUT    1 000010001    1    0  153.18540E+00    12.700
PNUT    1 000010001    1    0  154.18540E+00     6.600
PNUT    1 000010001    1    0  155.18540E+00    14.500
PNUT    1 000010001    1    0  156.18540E+00     5.300
PNUT    1 000010001    1    0  157.18540E+00     0.000
PNUT    1 000010001    1    0  158.18540E+00     0.000
PNUT    1 000010001    1    0  159.18540E+00     2.500
PNUT    1 000010001    1    0  160.18540E+00     0.500
PNUT    1 000010001    1    0  161.18540E+00    19.100
PNUT    1 000010001    1    0  162.18540E+00     0.000
PNUT    1 000010001    1    0  163.18540E+00     0.000
PNUT    1 000010001    1    0  164.18540E+00     0.000
PNUT    1 000010001    1    0  165.18540E+00    12.700
PNUT    1 000010001    1    0  166.18540E+00     5.300
PNUT    1 000010001    1    0  167.18540E+00     5.300
PNUT    1 000010001    1    0  168.18540E+00     0.000
PNUT    1 000010001    1    0  169.18540E+00    22.400
PNUT    1 000010001    1    0  170.18540E+00     0.000
PNUT    1 000010001    1    0  171.18540E+00     0.000
PNUT    1 000010001    1    0  172.18540E+00     0.000
PNUT    1 000010001    1    0  173.18540E+00    17.500
PNUT    1 000010001    1    0  174.18540E+00    35.300
PNUT    1 000010001    1    0  175.18540E+00     4.300
PNUT    1 000010001    1    0  176.18540E+00     0.800
PNUT    1 000010001    1    0  177.18540E+00    24.100
PNUT    1 000010001    1    0  178.18540E+00     7.100
PNUT    1 000010001    1    0  179.18540E+00     3.800
PNUT    1 000010001    1    0  180.18540E+00     0.300
PNUT    1 000010001    1    0  181.18540E+00     0.000
PNUT    1 000010001    1    0  182.18540E+00     3.800
PNUT    1 000010001    1    0  183.18540E+00    16.500
PNUT    1 000010001    1    0  184.18540E+00    10.900
PNUT    1 000010001    1    0  185.18540E+00     0.300
PNUT    1 000010001    1    0  186.18540E+00     0.000
PNUT    1 000010001    1    0  187.18540E+00     0.000
PNUT    1 000010001    1    0  188.18540E+00     0.000
PNUT    1 000010001    1    0  189.18540E+00     3.600
PNUT    1 000010001    1    0  190.18540E+00     4.600
PNUT    1 000010001    1    0  191.18540E+00     0.000
PNUT    1 000010001    1    0  192.18540E+00     0.000
PNUT    1 000010001    1    0  193.18540E+00     0.000
PNUT    1 000010001    1    0  194.18540E+00     0.000
PNUT    1 000010001    1    0  195.18540E+00     0.000
PNUT    1 000010001    1    0  196.18540E+00     0.000
PNUT    1 000010001    1    0  197.18540E+00     0.300
PNUT    1 000010001    1    0  198.18540E+00     1.800
PNUT    1 000010001    1    0  199.18540E+00     0.300
PNUT    1 000010001    1    0  200.18540E+00    20.100
PNUT    1 000010001    1    0  201.18540E+00     0.000
PNUT    1 000010001    1    0  202.18540E+00     0.000
PNUT    1 000010001    1    0  203.18540E+00     0.000
PNUT    1 000010001    1    0  204.18540E+00     0.000
PNUT    1 000010001    1    0  205.18540E+00     0.000
PNUT    1 000010001    1    0  206.18540E+00     0.300
PNUT    1 000010001    1    0  207.18540E+00     0.000
PNUT    1 000010001    1    0  208.18540E+00    13.700
PNUT    1 000010001    1    0  209.18540E+00    12.700
PNUT    1 000010001    1    0  210.18540E+00     0.500
PNUT    1 000010001    1    0  211.18540E+00     0.000
PNUT    1 000010001    1    0  212.18540E+00     9.100
PNUT    1 000010001    1    0  213.18540E+00     0.300
PNUT    1 000010001    1    0  214.18540E+00     0.000
PNUT    1 000010001    1    0  215.18540E+00     7.900
PNUT    1 000010001    1    0  216.18540E+00     0.000
PNUT    1 000010001    1    0  217.18540E+00     0.000
PNUT    1 000010001    1    0  218.18540E+00     0.000
PNUT    1 000010001    1    0  219.18540E+00     0.000
PNUT    1 000010001    1    0  220.18540E+00     0.000
PNUT    1 000010001    1    0  221.18540E+00     0.000
PNUT    1 000010001    1    0  222.18540E+00     0.000
PNUT    1 000010001    1    0  223.18540E+00    57.700
PNUT    1 000010001    1    0  224.18540E+00     0.800
PNUT    1 000010001    1    0  225.18540E+00    10.400
PNUT    1 000010001    1    0  226.18540E+00     0.300
PNUT    1 000010001    1    0  227.18540E+00     0.500
PNUT    1 000010001    1    0  228.18540E+00     0.000
PNUT    1 000010001    1    0  229.18540E+00     0.000
PNUT    1 000010001    1    0  230.18540E+00     1.000
PNUT    1 000010001    1    0  231.18540E+00     1.500
PNUT    1 000010001    1    0  232.18540E+00     0.000
PNUT    1 000010001    1    0  233.18540E+00     8.900
PNUT    1 000010001    1    0  234.18540E+00     7.900
PNUT    1 000010001    1    0  235.18540E+00     0.000
PNUT    1 000010001    1    0  236.18540E+00     0.000
PNUT    1 000010001    1    0  237.18540E+00     0.000
PNUT    1 000010001    1    0  238.18540E+00     0.000
PNUT    1 000010001    1    0  239.18540E+00     0.000
PNUT    1 000010001    1    0  240.18540E+00     0.000
PNUT    1 000010001    1    0  241.18540E+00     0.000
PNUT    1 000010001    1    0  242.18540E+00    41.900
PNUT    1 000010001    1    0  243.18540E+00     6.400
PNUT    1 000010001    1    0  244.18540E+00     0.300
PNUT    1 000010001    1    0  245.18540E+00     0.300
PNUT    1 000010001    1    0  246.18540E+00    22.100
PNUT    1 000010001    1    0  247.18540E+00     0.300
PNUT    1 000010001    1    0  248.18540E+00     0.000
PNUT    1 000010001    1    0  249.18540E+00     1.800
PNUT    1 000010001    1    0  250.18540E+00   123.700
PNUT    1 000010001    1    0  251.18540E+00     6.900
PNUT    1 000010001    1    0  252.18540E+00     0.300
PNUT    1 000010001    1    0  253.18540E+00     0.000
PNUT    1 000010001    1    0  254.18540E+00     0.000
PNUT    1 000010001    1    0  255.18540E+00     1.800
PNUT    1 000010001    1    0  256.18540E+00     0.000
PNUT    1 000010001    1    0  257.18540E+00     3.100
PNUT    1 000010001    1    0  258.18540E+00     0.300
PNUT    1 000010001    1    0  259.18540E+00     0.300
PNUT    1 000010001    1    0  260.18540E+00    15.800
PNUT    1 000010001    1    0  261.18540E+00     6.100
PNUT    1 000010001    1    0  262.18540E+00     0.000
PNUT    1 000010001    1    0  263.18540E+00     0.000
PNUT    1 000010001    1    0  264.18540E+00     0.000
PNUT    1 000010001    1    0  265.18540E+00     0.000
PNUT    1 000010001    1    0  266.18540E+00     0.000
PNUT    1 000010001    1    0  267.18540E+00     0.000
PNUT    1 000010001    1    0  268.18540E+00     0.000
PNUT    1 000010001    1    0  269.18540E+00     0.000
PNUT    1 000010001    1    0  270.18540E+00     4.800
PNUT    1 000010001    1    0  271.18540E+00   132.600
PNUT    1 000010001    1    0  272.18540E+00     0.000
PNUT    1 000010001    1    0  273.18540E+00     0.000
PNUT    1 000010001    1    0  274.18540E+00     0.000
PNUT    1 000010001    1    0  275.18540E+00     0.000
PNUT    1 000010001    1    0  276.18540E+00     0.000
PNUT    1 000010001    1    0  277.18540E+00     0.000
PNUT    1 000010001    1    0  278.18540E+00     0.000
PNUT    1 000010001    1    0  279.18540E+00     0.000
PNUT    1 000010001    1    0  280.18540E+00     0.000
PNUT    1 000010001    1    0  281.18540E+00     0.000
PNUT    1 000010001    1    0  282.18540E+00     0.000
PNUT    1 000010001    1    0  283.18540E+00     0.000
PNUT    1 000010001    1    0  284.18540E+00     2.300
PNUT    1 000010001    1    0  285.18540E+00     0.300
PNUT    1 000010001    1    0  286.18540E+00     0.000
PNUT    1 000010001    1    0  287.18540E+00     0.000
PNUT    1 000010001    1    0  288.18540E+00     4.300
PNUT    1 000010001    1    0  289.18540E+00     7.900
PNUT    1 000010001    1    0  290.18540E+00     0.000
PNUT    1 000010001    1    0  291.18540E+00     0.000
PNUT    1 000010001    1    0  292.18540E+00     0.000
PNUT    1 000010001    1    0  293.18540E+00     3.100
PNUT    1 000010001    1    0  294.18540E+00     0.300
PNUT    1 000010001    1    0  295.18540E+00     0.000
PNUT    1 000010001    1    0  296.18540E+00     0.000
PNUT    1 000010001    1    0  297.18540E+00     0.000
PNUT    1 000010001    1    0  298.18540E+00     0.800
PNUT    1 000010001    1    0  299.18540E+00     0.000
PNUT    1 000010001    1    0  300.18540E+00     0.000
PNUT    1 000010001    1    0  301.18540E+00     0.000
PNUT    1 000010001    1    0  302.18540E+00     0.000
PNUT    1 000010001    1    0  303.18540E+00     0.000
PNUT    1 000010001    1    0  304.18540E+00     0.000
PNUT    1 000010001    1    0  305.18540E+00     0.000
PNUT    1 000010001    1    0  306.18540E+00     0.000
PNUT    1 000010001    1    0  307.18540E+00     0.000
PNUT    1 000010001    1    0  308.18540E+00     0.000
PNUT    1 000010001    1    0  309.18540E+00     1.800
PNUT    1 000010001    1    0  310.18540E+00     0.000
PNUT    1 000010001    1    0  311.18540E+00     0.000
PNUT    1 000010001    1    0  312.18540E+00     0.000
PNUT    1 000010001    1    0  313.18540E+00     0.000
PNUT    1 000010001    1    0  314.18540E+00     0.000
PNUT    1 000010001    1    0  315.18540E+00     0.000
PNUT    1 000010001    1    0  316.18540E+00     0.000
PNUT    1 000010001    1    0  317.18540E+00     7.900
PNUT    1 000010001    1    0  318.18540E+00     0.500
PNUT    1 000010001    1    0  319.18540E+00     0.000
PNUT    1 000010001    1    0  320.18540E+00     0.000
PNUT    1 000010001    1    0  321.18540E+00     0.000
PNUT    1 000010001    1    0  322.18540E+00     0.000
PNUT    1 000010001    1    0  323.18540E+00     0.000
PNUT    1 000010001    1    0  324.18540E+00     2.500
PNUT    1 000010001    1    0  325.18540E+00     5.600
PNUT    1 000010001    1    0  326.18540E+00    22.100
PNUT    1 000010001    1    0  327.18540E+00    22.100
PNUT    1 000010001    1    0  328.18540E+00     8.900
PNUT    1 000010001    1    0  329.18540E+00    41.900
PNUT    1 000010001    1    0  330.18540E+00     0.000
PNUT    1 000010001    1    0  331.18540E+00     0.000
PNUT    1 000010001    1    0  332.18540E+00    14.000
PNUT    1 000010001    1    0  333.18540E+00     0.000
PNUT    1 000010001    1    0  334.18540E+00     0.000
PNUT    1 000010001    1    0  335.18540E+00     0.000
PNUT    1 000010001    1    0  336.18540E+00     0.500
PNUT    1 000010001    1    0  337.18540E+00     0.000
PNUT    1 000010001    1    0  338.18540E+00     0.000
PNUT    1 000010001    1    0  339.18540E+00     0.000
PNUT    1 000010001    1    0  340.18540E+00     2.000
PNUT    1 000010001    1    0  341.18540E+00     0.300
PNUT    1 000010001    1    0  342.18540E+00     1.000
PNUT    1 000010001    1    0  343.18540E+00     0.000
PNUT    1 000010001    1    0  344.18540E+00     3.600
PNUT    1 000010001    1    0  345.18540E+00    44.700
PNUT    1 000010001    1    0  346.18540E+00     0.000
PNUT    1 000010001    1    0  347.18540E+00     0.000
PNUT    1 000010001    1    0  348.18540E+00     0.000
PNUT    1 000010001    1    0  349.18540E+00     0.000
PNUT    1 000010001    1    0  350.18540E+00     0.000
PNUT    1 000010001    1    0  351.18540E+00     0.000
PNUT    1 000010001    1    0  352.18540E+00     0.000
PNUT    1 000010001    1    0  353.18540E+00     0.000
PNUT    1 000010001    1    0  354.18540E+00     0.000
PNUT    1 000010001    1    0  355.18540E+00     0.000
PNUT    1 000010001    1    0  356.18540E+00     0.000
PNUT    1 000010001    1    0  357.18540E+00     1.000
PNUT    1 000010001    1    0  358.18540E+00    11.400
PNUT    1 000010001    1    0  359.18540E+00     0.800
PNUT    1 000010001    1    0  360.18540E+00     5.600
PNUT    1 000010001    1    0  361.18540E+00    22.400
PNUT    1 000010001    1    0  362.18540E+00     0.000
PNUT    1 000010001    1    0  363.18540E+00     0.000
PNUT    1 000010001    1    0  364.18540E+00     0.000
PNUT    1 000010001    1    0  365.18540E+00     0.000
PNUT    1 000010001    1    0  366.18540E+00     0.000
PNUT    1 000010001    1    0    1.18540E+00     0.000
PNUT    1 000010001    1    0    2.18540E+00     0.000
PNUT    1 000010001    1    0    3.18540E+00     0.000
PNUT    1 000010001    1    0    4.18540E+00     0.000
PNUT    1 000010001    1    0    5.18540E+00     0.000
PNUT    1 000010001    1    0    6.18540E+00     0.000
PNUT    1 000010001    1    0    7.18540E+00     0.000
PNUT    1 000010001    1    0    8.18540E+00     2.300
PNUT    1 000010001    1    0    9.18540E+00     0.300
PNUT    1 000010001    1    0   10.18540E+00     0.000
PNUT    1 000010001    1    0   11.18540E+00     0.000
PNUT    1 000010001    1    0   12.18540E+00     0.000
PNUT    1 000010001    1    0   13.18540E+00    21.100
PNUT    1 000010001    1    0   14.18540E+00     4.800
PNUT    1 000010001    1    0   15.18540E+00     0.000
PNUT    1 000010001    1    0   16.18540E+00     0.000
PNUT    1 000010001    1    0   17.18540E+00     0.000
PNUT    1 000010001    1    0   18.18540E+00     0.000
PNUT    1 000010001    1    0   19.18540E+00     0.000
PNUT    1 000010001    1    0   20.18540E+00     0.000
PNUT    1 000010001    1    0   21.18540E+00     0.000
PNUT    1 000010001    1    0   22.18540E+00     0.000
PNUT    1 000010001    1    0   23.18540E+00     0.000
PNUT    1 000010001    1    0   24.18540E+00     0.000
PNUT    1 000010001    1    0   25.18540E+00     0.000
PNUT    1 000010001    1    0   26.18540E+00     0.000
PNUT    1 000010001    1    0   27.18540E+00     0.000
PNUT    1 000010001    1    0   28.18540E+00     1.800
PNUT    1 000010001    1    0   29.18540E+00    10.200
PNUT    1 000010001    1    0   30.18540E+00     0.300
PNUT    1 000010001    1    0   31.18540E+00     0.000
PNUT    1 000010001    1    0   32.18540E+00     0.000
PNUT    1 000010001    1    0   33.18540E+00     5.600
PNUT    1 000010001    1    0   34.18540E+00    11.400
PNUT    1 000010001    1    0   35.18540E+00     0.000
PNUT    1 000010001    1    0   36.18540E+00     0.000
PNUT    1 000010001    1    0   37.18540E+00     0.000
PNUT    1 000010001    1    0   38.18540E+00     0.000
PNUT    1 000010001    1    0   39.18540E+00     0.000
PNUT    1 000010001    1    0   40.18540E+00    19.800
PNUT    1 000010001    1    0   41.18540E+00     0.000
PNUT    1 000010001    1    0   42.18540E+00     0.000
PNUT    1 000010001    1    0   43.18540E+00     0.000
PNUT    1 000010001    1    0   44.18540E+00     0.000
PNUT    1 000010001    1    0   45.18540E+00     0.300
PNUT    1 000010001    1    0   46.18540E+00     0.300
PNUT    1 000010001    1    0   47.18540E+00     0.000
PNUT    1 000010001    1    0   48.18540E+00     0.000
PNUT    1 000010001    1    0   49.18540E+00     0.000
PNUT    1 000010001    1    0   50.18540E+00     0.000
PNUT    1 000010001    1    0   51.18540E+00     0.000
PNUT    1 000010001    1    0   52.18540E+00     0.300
PNUT    1 000010001    1    0   53.18540E+00     5.800
PNUT    1 000010001    1    0   54.18540E+00     0.800
PNUT    1 000010001    1    0   55.18540E+00     0.800
PNUT    1 000010001    1    0   56.18540E+00     2.800
PNUT    1 000010001    1    0   57.18540E+00     0.000
PNUT    1 000010001    1    0   58.18540E+00    35.600
PNUT    1 000010001    1    0   59.18540E+00     0.000
PNUT    1 000010001    1    0   60.18540E+00     0.000
PNUT    1 000010001    1    0   61.18540E+00     0.000
PNUT    1 000010001    1    0   62.18540E+00     0.000
PNUT    1 000010001    1    0   63.18540E+00     0.000
PNUT    1 000010001    1    0   64.18540E+00     0.000
PNUT    1 000010001    1    0   65.18540E+00     0.000
PNUT    1 000010001    1    0   66.18540E+00     5.100
PNUT    1 000010001    1    0   67.18540E+00     1.800
PNUT    1 000010001    1    0   68.18540E+00     0.000
PNUT    1 000010001    1    0   69.18540E+00     0.000
PNUT    1 000010001    1    0   70.18540E+00     0.000
PNUT    1 000010001    1    0   71.18540E+00     0.000
PNUT    1 000010001    1    0   72.18540E+00     0.000
PNUT    1 000010001    1    0   73.18540E+00     0.000
PNUT    1 000010001    1    0   74.18540E+00     1.000
PNUT    1 000010001    1    0   75.18540E+00    24.600
PNUT    1 000010001    1    0   76.18540E+00     0.500
PNUT    1 000010001    1    0   77.18540E+00     0.000
PNUT    1 000010001    1    0   78.18540E+00     0.000
PNUT    1 000010001    1    0   79.18540E+00     0.000
PNUT    1 000010001    1    0   80.18540E+00     0.000
PNUT    1 000010001    1    0   81.18540E+00    45.000
PNUT    1 000010001    1    0   82.18540E+00     0.300
PNUT    1 000010001    1    0   83.18540E+00     0.000
PNUT    1 000010001    1    0   84.18540E+00    13.200
PNUT    1 000010001    1    0   85.18540E+00    18.300
PNUT    1 000010001    1    0   86.18540E+00    93.000
PNUT    1 000010001    1    0   87.18540E+00     0.000
PNUT    1 000010001    1    0   88.18540E+00     0.000
PNUT    1 000010001    1    0   89.18540E+00     0.000
PNUT    1 000010001    1    0   90.18540E+00    31.000
PNUT    1 000010001    1    0   91.18540E+00    36.100
CORN    1 000010001    1    0   92.18540E+00     1.000
CORN    1 000010001    1    0   93.18540E+00     0.000
CORN    1 000010001    1    0   94.18540E+00     0.000
CORN    1 000010001    1    0   95.18540E+00     0.000
CORN    1 000010001    1    0   96.18540E+00     0.000
CORN    1 000010001    1    0   97.18540E+00    54.600
CORN    1 000010001    1    0   98.18540E+00     0.000
CORN    1 000010001    1    0   99.18540E+00     0.000
CORN    1 000010001    1    0  100.18540E+00     0.000
CORN    1 000010001    1    0  101.18540E+00     0.000
CORN    1 000010001    1    0  102.18540E+00     2.500
CORN    1 000010001    1    0  103.18540E+00     0.300
CORN    1 000010001    1    0  104.18540E+00     0.000
CORN    1 000010001    1    0  105.18540E+00     0.000
CORN    1 000010001    1    0  106.18540E+00     0.000
CORN    1 000010001    1    0  107.18540E+00     0.000
CORN    1 000010001    1    0  108.18540E+00     0.000
CORN    1 000010001    1    0  109.18540E+00     0.000
CORN    1 000010001    1    0  110.18540E+00     0.000
CORN    1 000010001    1    0  111.18540E+00     0.000
CORN    1 000010001    1    0  112.18540E+00    21.800
CORN    1 000010001    1    0  113.18540E+00     4.100
CORN    1 000010001    1    0  114.18540E+00     0.000
CORN    1 000010001    1    0  115.18540E+00     1.000
CORN    1 000010001    1    0  116.18540E+00     8.400
CORN    1 000010001    1    0  117.18540E+00     0.000
CORN    1 000010001    1    0  118.18540E+00     0.000
CORN    1 000010001    1    0  119.18540E+00     0.000
CORN    1 000010001    1    0  120.18540E+00    32.500
CORN    1 000010001    1    0  121.18540E+00     0.000
CORN    1 000010001    1    0  122.18540E+00     0.000
CORN    1 000010001    1    0  123.18540E+00     0.000
CORN    1 000010001    1    0  124.18540E+00     2.000
CORN    1 000010001    1    0  125.18540E+00     3.600
CORN    1 000010001    1    0  126.18540E+00     0.000
CORN    1 000010001    1    0  127.18540E+00     0.000
CORN    1 000010001    1    0  128.18540E+00     0.000
CORN    1 000010001    1    0  129.18540E+00     0.000
CORN    1 000010001    1    0  130.18540E+00     0.500
CORN    1 000010001    1    0  131.18540E+00     0.300
CORN    1 000010001    1    0  132.18540E+00     0.000
CORN    1 000010001    1    0  133.18540E+00     0.000
CORN    1 000010001    1    0  134.18540E+00     0.000
CORN    1 000010001    1    0  135.18540E+00     0.000
CORN    1 000010001    1    0  136.18540E+00     0.000
CORN    1 000010001    1    0  137.18540E+00     0.000
CORN    1 000010001    1    0  138.18540E+00     0.000
CORN    1 000010001    1    0  139.18540E+00     0.800
CORN    1 000010001    1    0  140.18540E+00    19.300
CORN    1 000010001    1    0  141.18540E+00     0.300
CORN    1 000010001    1    0  142.18540E+00     0.000
CORN    1 000010001    1    0  143.18540E+00     0.000
CORN    1 000010001    1    0  144.18540E+00     0.000
CORN    1 000010001    1    0  145.18540E+00     0.000
CORN    1 000010001    1    0  146.18540E+00     0.000
CORN    1 000010001    1    0  147.18540E+00     0.000
CORN    1 000010001    1    0  148.18540E+00     0.000
CORN    1 000010001    1    0  149.18540E+00     2.800
CORN    1 000010001    1    0  150.18540E+00     0.000
CORN    1 000010001    1    0  151.18540E+00     7.100
CORN    1 000010001    1    0  152.18540E+00    27.900
CORN    1 000010001    1    0  153.18540E+00    11.900
CORN    1 000010001    1    0  154.18540E+00    24.100
CORN    1 000010001    1    0  155.18540E+00     5.800
CORN    1 000010001    1    0  156.18540E+00     0.000
CORN    1 000010001    1    0  157.18540E+00     2.300
CORN    1 000010001    1    0  158.18540E+00     0.000
CORN    1 000010001    1    0  159.18540E+00    19.100
CORN    1 000010001    1    0  160.18540E+00     0.000
CORN    1 000010001    1    0  161.18540E+00    11.200
CORN    1 000010001    1    0  162.18540E+00    25.400
CORN    1 000010001    1    0  163.18540E+00     2.300
CORN    1 000010001    1    0  164.18540E+00     1.300
CORN    1 000010001    1    0  165.18540E+00     0.000
CORN    1 000010001    1    0  166.18540E+00     0.000
CORN    1 000010001    1    0  167.18540E+00     0.000
CORN    1 000010001    1    0  168.18540E+00     0.000
CORN    1 000010001    1    0  169.18540E+00     0.000
CORN    1 000010001    1    0  170.18540E+00     0.000
CORN    1 000010001    1    0  171.18540E+00     0.000
CORN    1 000010001    1    0  172.18540E+00     0.000
CORN    1 000010001    1    0  173.18540E+00     1.300
CORN    1 000010001    1    0  174.18540E+00     0.000
CORN    1 000010001    1    0  175.18540E+00     0.000
CORN    1 000010001    1    0  176.18540E+00     1.300
CORN    1 000010001    1    0  177.18540E+00     0.500
CORN    1 000010001    1    0  178.18540E+00     0.000
CORN    1 000010001    1    0  179.18540E+00     3.800
CORN    1 000010001    1    0  180.18540E+00     4.600
CORN    1 000010001    1    0  181.18540E+00     0.000
CORN    1 000010001    1    0  182.18540E+00    62.000
CORN    1 000010001    1    0  183.18540E+00     4.100
CORN    1 000010001    1    0  184.18540E+00     0.000
CORN    1 000010001    1    0  185.18540E+00     0.000
CORN    1 000010001    1    0  186.18540E+00     0.000
CORN    1 000010001    1    0  187.18540E+00     1.300
CORN    1 000010001    1    0  188.18540E+00     0.000
CORN    1 000010001    1    0  189.18540E+00     0.000
CORN    1 000010001    1    0  190.18540E+00     1.000
CORN    1 000010001    1    0  191.18540E+00   125.700
CORN    1 000010001    1    0  192.18540E+00     3.100
CORN    1 000010001    1    0  193.18540E+00    10.200
CORN    1 000010001    1    0  194.18540E+00     0.500
CORN    1 000010001    1    0  195.18540E+00     0.000
CORN    1 000010001    1    0  196.18540E+00     0.000
CORN    1 000010001    1    0  197.18540E+00     0.500
CORN    1 000010001    1    0  198.18540E+00     0.000
CORN    1 000010001    1    0  199.18540E+00     0.000
CORN    1 000010001    1    0  200.18540E+00     0.000
CORN    1 000010001    1    0  201.18540E+00     0.500
CORN    1 000010001    1    0  202.18540E+00    17.000
CORN    1 000010001    1    0  203.18540E+00     0.000
CORN    1 000010001    1    0  204.18540E+00     0.000
CORN    1 000010001    1    0  205.18540E+00     0.000
CORN    1 000010001    1    0  206.18540E+00     0.000
CORN    1 000010001    1    0  207.18540E+00     0.000
CORN    1 000010001    1    0  208.18540E+00     0.000
CORN    1 000010001    1    0  209.18540E+00     0.000
CORN    1 000010001    1    0  210.18540E+00     0.000
CORN    1 000010001    1    0  211.18540E+00     8.900
CORN    1 000010001    1    0  212.18540E+00     0.000
CORN    1 000010001    1    0  213.18540E+00     3.600
CORN    1 000010001    1    0  214.18540E+00     0.300
CORN    1 000010001    1    0  215.18540E+00     3.600
CORN    1 000010001    1    0  216.18540E+00     0.000
CORN    1 000010001    1    0  217.18540E+00    13.700
CORN    1 000010001    1    0  218.18540E+00     8.900
CORN    1 000010001    1    0  219.18540E+00     0.000
CORN    1 000010001    1    0  220.18540E+00     0.000
CORN    1 000010001    1    0  221.18540E+00     0.000
CORN    1 000010001    1    0  222.18540E+00     1.000
CORN    1 000010001    1    0  223.18540E+00    20.600
CORN    1 000010001    1    0  224.18540E+00     0.000
CORN    1 000010001    1    0  225.18540E+00     0.000
CORN    1 000010001    1    0  226.18540E+00     0.000
CORN    1 000010001    1    0  227.18540E+00     0.000
CORN    1 000010001    1    0  228.18540E+00     0.000
CORN    1 000010001    1    0  229.18540E+00     0.000
CORN    1 000010001    1    0  230.18540E+00     0.300
CORN    1 000010001    1    0  231.18540E+00     0.500
CORN    1 000010001    1    0  232.18540E+00     0.000
CORN    1 000010001    1    0  233.18540E+00     0.000
CORN    1 000010001    1    0  234.18540E+00    13.000
CORN    1 000010001    1    0  235.18540E+00     0.300
CORN    1 000010001    1    0  236.18540E+00     0.000
CORN    1 000010001    1    0  237.18540E+00     1.000
CORN    1 000010001    1    0  238.18540E+00     0.000
CORN    1 000010001    1    0  239.18540E+00     0.000
CORN    1 000010001    1    0  240.18540E+00     1.800
CORN    1 000010001    1    0  241.18540E+00     1.800
CORN    1 000010001    1    0  242.18540E+00     3.100
CORN    1 000010001    1    0  243.18540E+00    11.200
CORN    1 000010001    1    0  244.18540E+00     0.300
CORN    1 000010001    1    0  245.18540E+00     0.000
CORN    1 000010001    1    0  246.18540E+00     0.000
CORN    1 000010001    1    0  247.18540E+00     0.000
CORN    1 000010001    1    0  248.18540E+00     0.000
CORN    1 000010001    1    0  249.18540E+00     0.000
CORN    1 000010001    1    0  250.18540E+00     0.000
CORN    1 000010001    1    0  251.18540E+00     0.000
CORN    1 000010001    1    0  252.18540E+00     0.000
CORN    1 000010001    1    0  253.18540E+00     0.000
CORN    1 000010001    1    0  254.18540E+00     0.000
CORN    1 000010001    1    0  255.18540E+00     0.000
CORN    1 000010001    1    0  256.18540E+00     0.000
CORN    1 000010001    1    0  257.18540E+00     0.000
CORN    1 000010001    1    0  258.18540E+00     0.000
CORN    1 000010001    1    0  259.18540E+00     0.000
CORN    1 000010001    1    0  260.18540E+00     0.000
CORN    1 000010001    1    0  261.18540E+00     0.000
CORN    1 000010001    1    0  262.18540E+00     0.000
CORN    1 000010001    1    0  263.18540E+00     0.000
CORN    1 000010001    1    0  264.18540E+00     0.000
CORN    1 000010001    1    0  265.18540E+00     0.000
CORN    1 000010001    1    0  266.18540E+00     0.000
CORN    1 000010001    1    0  267.18540E+00     0.000
CORN    1 000010001    1    0  268.18540E+00     0.000
CORN    1 000010001    1    0  269.18540E+00     2.300
CORN    1 000010001    1    0  270.18540E+00     0.500
CORN    1 000010001    1    0  271.18540E+00     0.000
CORN    1 000010001    1    0  272.18540E+00     0.000
CORN    1 000010001    1    0  273.18540E+00     0.000
CORN    1 000010001    1    0  274.18540E+00     0.000
CORN    1 000010001    1    0  275.18540E+00     3.100
CORN    1 000010001    1    0  276.18540E+00     0.000
CORN    1 000010001    1    0  277.18540E+00     0.000
CORN    1 000010001    1    0  278.18540E+00     2.800
CORN    1 000010001    1    0  279.18540E+00    15.000
CORN    1 000010001    1    0  280.18540E+00    11.200
CORN    1 000010001    1    0  281.18540E+00     0.000
CORN    1 000010001    1    0  282.18540E+00     0.000
CORN    1 000010001    1    0  283.18540E+00     0.000
CORN    1 000010001    1    0  284.18540E+00     0.000
CORN    1 000010001    1    0  285.18540E+00     0.000
CORN    1 000010001    1    0  286.18540E+00     0.000
CORN    1 000010001    1    0  287.18540E+00     0.000
CORN    1 000010001    1    0  288.18540E+00     0.000
CORN    1 000010001    1    0  289.18540E+00     0.000
CORN    1 000010001    1    0  290.18540E+00     0.000
CORN    1 000010001    1    0  291.18540E+00     0.000
CORN    1 000010001    1    0  292.18540E+00     0.000
CORN    1 000010001    1    0  293.18540E+00     0.000
CORN    1 000010001    1    0  294.18540E+00     0.000
CORN    1 000010001    1    0  295.18540E+00     0.000
CORN    1 000010001    1    0  296.18540E+00     0.000
CORN    1 000010001    1    0  297.18540E+00     0.000
CORN    1 000010001    1    0  298.18540E+00     0.000
CORN    1 000010001    1    0  299.18540E+00     0.000
CORN    1 000010001    1    0  300.18540E+00     0.000
CORN    1 000010001    1    0  301.18540E+00     0.000
CORN    1 000010001    1    0  302.18540E+00     0.000
CORN    1 000010001    1    0  303.18540E+00     0.000
CORN    1 000010001    1    0  304.18540E+00     0.000
CORN    1 000010001    1    0  305.18540E+00     4.600
CORN    1 000010001    1    0  306.18540E+00     0.300
CORN    1 000010001    1    0  307.18540E+00     0.000
CORN    1 000010001    1    0  308.18540E+00     0.000
CORN    1 000010001    1    0  309.18540E+00     0.000
CORN    1 000010001    1    0  310.18540E+00     0.000
CORN    1 000010001    1    0  311.18540E+00     0.000
CORN    1 000010001    1    0  312.18540E+00     0.000
CORN    1 000010001    1    0  313.18540E+00     0.000
CORN    1 000010001    1    0  314.18540E+00     0.000
CORN    1 000010001    1    0  315.18540E+00     0.000
CORN    1 000010001    1    0  316.18540E+00     0.000
CORN    1 000010001    1    0  317.18540E+00     0.000
CORN    1 000010001    1    0  318.18540E+00     0.000
CORN    1 000010001    1    0  319.18540E+00     0.000
CORN    1 000010001    1    0  320.18540E+00     0.000
CORN    1 000010001    1    0  321.18540E+00     0.000
CORN    1 000010001    1    0  322.18540E+00     0.000
CORN    1 000010001    1    0  323.18540E+00     0.000
CORN    1 000010001    1    0  324.18540E+00    11.400
CORN    1 000010001    1    0  325.18540E+00    16.800
CORN    1 000010001    1    0  326.18540E+00     0.000
CORN    1 000010001    1    0  327.18540E+00     0.000
CORN    1 000010001    1    0  328.18540E+00     0.000
CORN    1 000010001    1    0  329.18540E+00     0.000
CORN    1 000010001    1    0  330.18540E+00     0.000
CORN    1 000010001    1    0  331.18540E+00     0.000
CORN    1 000010001    1    0  332.18540E+00     3.100
CORN    1 000010001    1    0  333.18540E+00     5.800
CORN    1 000010001    1    0  334.18540E+00     0.000
CORN    1 000010001    1    0  335.18540E+00     0.000
CORN    1 000010001    1    0  336.18540E+00     0.000
CORN    1 000010001    1    0  337.18540E+00     0.000
CORN    1 000010001    1    0  338.18540E+00    20.800
CORN    1 000010001    1    0  339.18540E+00    45.200
CORN    1 000010001    1    0  340.18540E+00     0.000
CORN    1 000010001    1    0  341.18540E+00     0.000
CORN    1 000010001    1    0  342.18540E+00    16.300
CORN    1 000010001    1    0  343.18540E+00     1.300
CORN    1 000010001    1    0  344.18540E+00     0.000
CORN    1 000010001    1    0  345.18540E+00     0.000
CORN    1 000010001    1    0  346.18540E+00     0.000
CORN    1 000010001    1    0  347.18540E+00     0.000
CORN    1 000010001    1    0  348.18540E+00     0.000
CORN    1 000010001    1    0  349.18540E+00    14.200
CORN    1 000010001    1    0  350.18540E+00     0.000
CORN    1 000010001    1    0  351.18540E+00    12.200
CORN    1 000010001    1    0  352.18540E+00     6.600
CORN    1 000010001    1    0  353.18540E+00     0.000
CORN    1 000010001    1    0  354.18540E+00     0.000
CORN    1 000010001    1    0  355.18540E+00     0.000
CORN    1 000010001    1    0  356.18540E+00     0.000
CORN    1 000010001    1    0  357.18540E+00     0.000
CORN    1 000010001    1    0  358.18540E+00     0.300
CORN    1 000010001    1    0  359.18540E+00    26.200
CORN    1 000010001    1    0  360.18540E+00     0.000
CORN    1 000010001    1    0  361.18540E+00     0.000
CORN    1 000010001    1    0  362.18540E+00     1.000
CORN    1 000010001    1    0  363.18540E+00     0.000
CORN    1 000010001    1    0  364.18540E+00     0.000
CORN    1 000010001    1    0  365.18540E+00     0.000
CORN    1 000010001    1    0    1.18540E+00     9.400
CORN    1 000010001    1    0    2.18540E+00    52.100
CORN    1 000010001    1    0    3.18540E+00     0.000
CORN    1 000010001    1    0    4.18540E+00     0.000
CORN    1 000010001    1    0    5.18540E+00     0.000
CORN    1 000010001    1    0    6.18540E+00     0.000
CORN    1 000010001    1    0    7.18540E+00     0.000
CORN    1 000010001    1    0    8.18540E+00     0.000
CORN    1 000010001    1    0    9.18540E+00     0.000
CORN    1 000010001    1    0   10.18540E+00     0.000
CORN    1 000010001    1    0   11.18540E+00     0.000
CORN    1 000010001    1    0   12.18540E+00     0.000
CORN    1 000010001    1    0   13.18540E+00     7.100
CORN    1 000010001    1    0   14.18540E+00     0.000
CORN    1 000010001    1    0   15.18540E+00     0.000
CORN    1 000010001    1    0   16.18540E+00     0.000
CORN    1 000010001    1    0   17.18540E+00    14.200
CORN    1 000010001    1    0   18.18540E+00     0.000
CORN    1 000010001    1    0   19.18540E+00     0.000
CORN    1 000010001    1    0   20.18540E+00     0.000
CORN    1 000010001    1    0   21.18540E+00     0.000
CORN    1 000010001    1    0   22.18540E+00     0.000
CORN    1 000010001    1    0   23.18540E+00    11.200
CORN    1 000010001    1    0   24.18540E+00     1.000
CORN    1 000010001    1    0   25.18540E+00     0.000
CORN    1 000010001    1    0   26.18540E+00     0.000
CORN    1 000010001    1    0   27.18540E+00     0.000
CORN    1 000010001    1    0   28.18540E+00     0.000
CORN    1 000010001    1    0   29.18540E+00     2.500
CORN    1 000010001    1    0   30.18540E+00    19.300
CORN    1 000010001    1    0   31.18540E+00     0.300
CORN    1 000010001    1    0   32.18540E+00     0.000
CORN    1 000010001    1    0   33.18540E+00    29.200
CORN    1 000010001    1    0   34.18540E+00     0.000
CORN    1 000010001    1    0   35.18540E+00     5.300
CORN    1 000010001    1    0   36.18540E+00     0.000
CORN    1 000010001    1    0   37.18540E+00     0.000
CORN    1 000010001    1    0   38.18540E+00     3.100
CORN    1 000010001    1    0   39.18540E+00     0.000
CORN    1 000010001    1    0   40.18540E+00     0.000
CORN    1 000010001    1    0   41.18540E+00     0.000
CORN    1 000010001    1    0   42.18540E+00    15.500
CORN    1 000010001    1    0   43.18540E+00     0.000
CORN    1 000010001    1    0   44.18540E+00     0.000
CORN    1 000010001    1    0   45.18540E+00     0.000
CORN    1 000010001    1    0   46.18540E+00     0.000
CORN    1 000010001    1    0   47.18540E+00     0.000
CORN    1 000010001    1    0   48.18540E+00     0.000
CORN    1 000010001    1    0   49.18540E+00     5.300
CORN    1 000010001    1    0   50.18540E+00     0.000
CORN    1 000010001    1    0   51.18540E+00     0.000
CORN    1 000010001    1    0   52.18540E+00     5.600
CORN    1 000010001    1    0   53.18540E+00     0.000
CORN    1 000010001    1    0   54.18540E+00     2.500
CORN    1 000010001    1    0   55.18540E+00     0.000
CORN    1 000010001    1    0   56.18540E+00    56.400
CORN    1 000010001    1    0   57.18540E+00     2.300
CORN    1 000010001    1    0   58.18540E+00     0.000
CORN    1 000010001    1    0   59.18540E+00     0.000
CORN    1 000010001    1    0   60.18540E+00     0.000
CORN    1 000010001    1    0   61.18540E+00     0.000
CORN    1 000010001    1    0   62.18540E+00     0.000
CORN    1 000010001    1    0   63.18540E+00     0.000
CORN    1 000010001    1    0   64.18540E+00     0.000
CORN    1 000010001    1    0   65.18540E+00     1.000
CORN    1 000010001    1    0   66.18540E+00     0.000
CORN    1 000010001    1    0   67.18540E+00     0.000
CORN    1 000010001    1    0   68.18540E+00     0.000
CORN    1 000010001    1    0   69.18540E+00     0.000
CORN    1 000010001    1    0   70.18540E+00     0.000
CORN    1 000010001    1    0   71.18540E+00     0.000
CORN    1 000010001    1    0   72.18540E+00     0.000
CORN    1 000010001    1    0   73.18540E+00     2.500
CORN    1 000010001    1    0   74.18540E+00     0.000
CORN    1 000010001    1    0   75.18540E+00     0.000
CORN    1 000010001    1    0   76.18540E+00     0.000
CORN    1 000010001    1    0   77.18540E+00     0.000
CORN    1 000010001    1    0   78.18540E+00     0.000
CORN    1 000010001    1    0   79.18540E+00     0.000
CORN    1 000010001    1    0   80.18540E+00    14.500
CORN    1 000010001    1    0   81.18540E+00     0.000
CORN    1 000010001    1    0   82.18540E+00     0.500
CORN    1 000010001    1    0   83.18540E+00     0.000
CORN    1 000010001    1    0   84.18540E+00     0.000
CORN    1 000010001    1    0   85.18540E+00     0.000
CORN    1 000010001    1    0   86.18540E+00     0.000
CORN    1 000010001    1    0   87.18540E+00     0.000
CORN    1 000010001    1    0   88.18540E+00     0.000
CORN    1 000010001    1    0   89.18540E+00     0.000
CORN    1 000010001    1    0   90.18540E+00     0.000
CORN    1 000010001    1    0   91.18540E+00     0.000
CORN    1 000010001    1    0   92.18540E+00     0.000
CORN    1 000010001    1    0   93.18540E+00     0.000
CORN    1 000010001    1    0   94.18540E+00     0.000
CORN    1 000010001    1    0   95.18540E+00     0.000
CORN    1 000010001    1    0   96.18540E+00     0.000
CORN    1 000010001    1    0   97.18540E+00     0.000
CORN    1 000010001    1    0   98.18540E+00    21.300
CORN    1 000010001    1    0   99.18540E+00     0.000
CORN    1 000010001    1    0  100.18540E+00     0.000
CORN    1 000010001    1    0  101.18540E+00     0.000
CORN    1 000010001    1    0  102.18540E+00     0.000
CORN    1 000010001    1    0  103.18540E+00     0.000
CORN    1 000010001    1    0  104.18540E+00     0.000
CORN    1 000010001    1    0  105.18540E+00     0.000
CORN    1 000010001    1    0  106.18540E+00     0.000
CORN    1 000010001    1    0  107.18540E+00     0.000
CORN    1 000010001    1    0  108.18540E+00     0.000
CORN    1 000010001    1    0  109.18540E+00     2.000
CORN    1 000010001    1    0  110.18540E+00     0.000
CORN    1 000010001    1    0  111.18540E+00     0.000
CORN    1 000010001    1    0  112.18540E+00     3.100
CORN    1 000010001    1    0  113.18540E+00     0.000
CORN    1 000010001    1    0  114.18540E+00     0.000
CORN    1 000010001    1    0  115.18540E+00     0.000
CORN    1 000010001    1    0  116.18540E+00     3.600
CORN    1 000010001    1    0  117.18540E+00     0.300
CORN    1 000010001    1    0  118.18540E+00     0.000
CORN    1 000010001    1    0  119.18540E+00     0.000
CORN    1 000010001    1    0  120.18540E+00     0.000
CORN    1 000010001    1    0  121.18540E+00     0.000
COTS    1 000010001    1    0  122.18540E+00     0.000
COTS    1 000010001    1    0  123.18540E+00     0.000
COTS    1 000010001    1    0  124.18540E+00     0.000
COTS    1 000010001    1    0  125.18540E+00     3.100
COTS    1 000010001    1    0  126.18540E+00     0.000
COTS    1 000010001    1    0  127.18540E+00    22.400
COTS    1 000010001    1    0  128.18540E+00     0.000
COTS    1 000010001    1    0  129.18540E+00     1.300
COTS    1 000010001    1    0  130.18540E+00    19.800
COTS    1 000010001    1    0  131.18540E+00     1.800
COTS    1 000010001    1    0  132.18540E+00     0.000
COTS    1 000010001    1    0  133.18540E+00     0.300
COTS    1 000010001    1    0  134.18540E+00     0.300
COTS    1 000010001    1    0  135.18540E+00     0.000
COTS    1 000010001    1    0  136.18540E+00     0.000
COTS    1 000010001    1    0  137.18540E+00     0.000
COTS    1 000010001    1    0  138.18540E+00     0.000
COTS    1 000010001    1    0  139.18540E+00     0.000
COTS    1 000010001    1    0  140.18540E+00     0.000
COTS    1 000010001    1    0  141.18540E+00     0.000
COTS    1 000010001    1    0  142.18540E+00     0.000
COTS    1 000010001    1    0  143.18540E+00     0.000
COTS    1 000010001    1    0  144.18540E+00     0.000
COTS    1 000010001    1    0  145.18540E+00     1.800
COTS    1 000010001    1    0  146.18540E+00     0.000
COTS    1 000010001    1    0  147.18540E+00     0.000
COTS    1 000010001    1    0  148.18540E+00     0.300
COTS    1 000010001    1    0  149.18540E+00     0.000
COTS    1 000010001    1    0  150.18540E+00     0.000
COTS    1 000010001    1    0  151.18540E+00     0.000
COTS    1 000010001    1    0  152.18540E+00    13.700
COTS    1 000010001    1    0  153.18540E+00     7.600
COTS    1 000010001    1    0  154.18540E+00     0.000
COTS    1 000010001    1    0  155.18540E+00     0.000
COTS    1 000010001    1    0  156.18540E+00     0.000
COTS    1 000010001    1    0  157.18540E+00     0.000
COTS    1 000010001    1    0  158.18540E+00     0.000
COTS    1 000010001    1    0  159.18540E+00     0.000
COTS    1 000010001    1    0  160.18540E+00     0.000
COTS    1 000010001    1    0  161.18540E+00     0.000
COTS    1 000010001    1    0  162.18540E+00     0.000
COTS    1 000010001    1    0  163.18540E+00     0.000
COTS    1 000010001    1    0  164.18540E+00    31.800
COTS    1 000010001    1    0  165.18540E+00     0.000
COTS    1 000010001    1    0  166.18540E+00     0.000
COTS    1 000010001    1    0  167.18540E+00     0.000
COTS    1 000010001    1    0  168.18540E+00     0.000
COTS    1 000010001    1    0  169.18540E+00     0.000
COTS    1 000010001    1    0  170.18540E+00     0.000
COTS    1 000010001    1    0  171.18540E+00     0.000
COTS    1 000010001    1    0  172.18540E+00     0.000
COTS    1 000010001    1    0  173.18540E+00     0.000
COTS    1 000010001    1    0  174.18540E+00     0.000
COTS    1 000010001    1    0  175.18540E+00     0.000
COTS    1 000010001    1    0  176.18540E+00    49.300
COTS    1 000010001    1    0  177.18540E+00    35.800
COTS    1 000010001    1    0  178.18540E+00     0.000
COTS    1 000010001    1    0  179.18540E+00     2.300
COTS    1 000010001    1    0  180.18540E+00     0.000
COTS    1 000010001    1    0  181.18540E+00     0.000
COTS    1 000010001    1    0  182.18540E+00     0.000
COTS    1 000010001    1    0  183.18540E+00     0.000
COTS    1 000010001    1    0  184.18540E+00     0.000
COTS    1 000010001    1    0  185.18540E+00     0.000
COTS    1 000010001    1    0  186.18540E+00     0.000
COTS    1 000010001    1    0  187.18540E+00     1.000
COTS    1 000010001    1    0  188.18540E+00     0.000
COTS    1 000010001    1    0  189.18540E+00     0.000
COTS    1 000010001    1    0  190.18540E+00     0.000
COTS    1 000010001    1    0  191.18540E+00     0.000
COTS    1 000010001    1    0  192.18540E+00     0.000
COTS    1 000010001    1    0  193.18540E+00     0.000
COTS    1 000010001    1    0  194.18540E+00     0.000
COTS    1 000010001    1    0  195.18540E+00     0.000
COTS    1 000010001    1    0  196.18540E+00     0.000
COTS    1 000010001    1    0  197.18540E+00     2.800
COTS    1 000010001    1    0  198.18540E+00     7.600
COTS    1 000010001    1    0  199.18540E+00     0.000
COTS    1 000010001    1    0  200.18540E+00     0.000
COTS    1 000010001    1    0  201.18540E+00     0.000
COTS    1 000010001    1    0  202.18540E+00     0.000
COTS    1 000010001    1    0  203.18540E+00     1.800
COTS    1 000010001    1    0  204.18540E+00    16.500
COTS    1 000010001    1    0  205.18540E+00    15.200
COTS    1 000010001    1    0  206.18540E+00     0.000
COTS    1 000010001    1    0  207.18540E+00     0.000
COTS    1 000010001    1    0  208.18540E+00     0.000
COTS    1 000010001    1    0  209.18540E+00     0.000
COTS    1 000010001    1    0  210.18540E+00     2.300
COTS    1 000010001    1    0  211.18540E+00     0.500
COTS    1 000010001    1    0  212.18540E+00     0.000
COTS    1 000010001    1    0  213.18540E+00     0.000
COTS    1 000010001    1    0  214.18540E+00     0.000
COTS    1 000010001    1    0  215.18540E+00     0.000
COTS    1 000010001    1    0  216.18540E+00    23.400
COTS    1 000010001    1    0  217.18540E+00     0.000
COTS    1 000010001    1    0  218.18540E+00     0.000
COTS    1 000010001    1    0  219.18540E+00     7.400
COTS    1 000010001    1    0  220.18540E+00     0.000
COTS    1 000010001    1    0  221.18540E+00     0.000
COTS    1 000010001    1    0  222.18540E+00     0.000
COTS    1 000010001    1    0  223.18540E+00     8.900
COTS    1 000010001    1    0  224.18540E+00     3.800
COTS    1 000010001    1    0  225.18540E+00     0.300
COTS    1 000010001    1    0  226.18540E+00     1.500
COTS    1 000010001    1    0  227.18540E+00     0.000
COTS    1 000010001    1    0  228.18540E+00    46.000
COTS    1 000010001    1    0  229.18540E+00     0.000
COTS    1 000010001    1    0  230.18540E+00     0.000
COTS    1 000010001    1    0  231.18540E+00     0.000
COTS    1 000010001    1    0  232.18540E+00     2.000
COTS    1 000010001    1    0  233.18540E+00     6.900
COTS    1 000010001    1    0  234.18540E+00     0.000
COTS    1 000010001    1    0  235.18540E+00     0.000
COTS    1 000010001    1    0  236.18540E+00     4.100
COTS    1 000010001    1    0  237.18540E+00     0.000
COTS    1 000010001    1    0  238.18540E+00     0.000
COTS    1 000010001    1    0  239.18540E+00     0.000
COTS    1 000010001    1    0  240.18540E+00     0.000
COTS    1 000010001    1    0  241.18540E+00     0.000
COTS    1 000010001    1    0  242.18540E+00     3.600
COTS    1 000010001    1    0  243.18540E+00    18.000
COTS    1 000010001    1    0  244.18540E+00     5.600
COTS    1 000010001    1    0  245.18540E+00     0.000
COTS    1 000010001    1    0  246.18540E+00     0.000
COTS    1 000010001    1    0  247.18540E+00     0.000
COTS    1 000010001    1    0  248.18540E+00     1.300
COTS    1 000010001    1    0  249.18540E+00     1.000
COTS    1 000010001    1    0  250.18540E+00     6.900
COTS    1 000010001    1    0  251.18540E+00     0.000
COTS    1 000010001    1    0  252.18540E+00     0.000
COTS    1 000010001    1    0  253.18540E+00     0.500
COTS    1 000010001    1    0  254.18540E+00     0.000
COTS    1 000010001    1    0  255.18540E+00     4.300
COTS    1 000010001    1    0  256.18540E+00     3.800
COTS    1 000010001    1    0  257.18540E+00     0.000
COTS    1 000010001    1    0  258.18540E+00     0.000
COTS    1 000010001    1    0  259.18540E+00     0.000
COTS    1 000010001    1    0  260.18540E+00     0.000
COTS    1 000010001    1    0  261.18540E+00     7.600
COTS    1 000010001    1    0  262.18540E+00     4.800
COTS    1 000010001    1    0  263.18540E+00     0.000
COTS    1 000010001    1    0  264.18540E+00     0.000
COTS    1 000010001    1    0  265.18540E+00     0.000
COTS    1 000010001    1    0  266.18540E+00     0.000
COTS    1 000010001    1    0  267.18540E+00     0.300
COTS    1 000010001    1    0  268.18540E+00     0.000
COTS    1 000010001    1    0  269.18540E+00     0.000
COTS    1 000010001    1    0  270.18540E+00     0.000
COTS    1 000010001    1    0  271.18540E+00     0.000
COTS    1 000010001    1    0  272.18540E+00     0.000
COTS    1 000010001    1    0  273.18540E+00     0.000
COTS    1 000010001    1    0  274.18540E+00     0.000
COTS    1 000010001    1    0  275.18540E+00     0.000
COTS    1 000010001    1    0  276.18540E+00     0.000
COTS    1 000010001    1    0  277.18540E+00     0.000
COTS    1 000010001    1    0  278.18540E+00     0.000
COTS    1 000010001    1    0  279.18540E+00     0.000
COTS    1 000010001    1    0  280.18540E+00     0.000
COTS    1 000010001    1    0  281.18540E+00     0.000
COTS    1 000010001    1    0  282.18540E+00     0.000
COTS    1 000010001    1    0  283.18540E+00     0.000
COTS    1 000010001    1    0  284.18540E+00     0.000
COTS    1 000010001    1    0  285.18540E+00     0.000
COTS    1 000010001    1    0  286.18540E+00     0.000
COTS    1 000010001    1    0  287.18540E+00     0.000
COTS    1 000010001    1    0  288.18540E+00     0.000
COTS    1 000010001    1    0  289.18540E+00     0.000
COTS    1 000010001    1    0  290.18540E+00     5.800
COTS    1 000010001    1    0  291.18540E+00     0.000
COTS    1 000010001    1    0  292.18540E+00     0.500
COTS    1 000010001    1    0  293.18540E+00     0.000
COTS    1 000010001    1    0  294.18540E+00     0.000
COTS    1 000010001    1    0  295.18540E+00    45.700
COTS    1 000010001    1    0  296.18540E+00     0.000
COTS    1 000010001    1    0  297.18540E+00     0.000
COTS    1 000010001    1    0  298.18540E+00     0.000
COTS    1 000010001    1    0  299.18540E+00     0.000
COTS    1 000010001    1    0  300.18540E+00    14.700
COTS    1 000010001    1    0  301.18540E+00     0.000
COTS    1 000010001    1    0  302.18540E+00     0.000
COTS    1 000010001    1    0  303.18540E+00     0.000
COTS    1 000010001    1    0  304.18540E+00     0.000
COTS    1 000010001    1    0  305.18540E+00     0.000
COTS    1 000010001    1    0  306.18540E+00     0.000
COTS    1 000010001    1    0  307.18540E+00     0.000
COTS    1 000010001    1    0  308.18540E+00     0.000
COTS    1 000010001    1    0  309.18540E+00     0.000
COTS    1 000010001    1    0  310.18540E+00     0.000
COTS    1 000010001    1    0  311.18540E+00    14.200
COTS    1 000010001    1    0  312.18540E+00     0.000
COTS    1 000010001    1    0  313.18540E+00     0.000
COTS    1 000010001    1    0  314.18540E+00     0.000
COTS    1 000010001    1    0  315.18540E+00     0.000
COTS    1 000010001    1    0  316.18540E+00     0.000
COTS    1 000010001    1    0  317.18540E+00     0.000
COTS    1 000010001    1    0  318.18540E+00     0.000
COTS    1 000010001    1    0  319.18540E+00    64.300
COTS    1 000010001    1    0  320.18540E+00     1.500
COTS    1 000010001    1    0  321.18540E+00     0.000
COTS    1 000010001    1    0  322.18540E+00     0.000
COTS    1 000010001    1    0  323.18540E+00     0.000
COTS    1 000010001    1    0  324.18540E+00     0.000
COTS    1 000010001    1    0  325.18540E+00     0.000
COTS    1 000010001    1    0  326.18540E+00     0.300
COTS    1 000010001    1    0  327.18540E+00     0.000
COTS    1 000010001    1    0  328.18540E+00     0.000
COTS    1 000010001    1    0  329.18540E+00     0.000
COTS    1 000010001    1    0  330.18540E+00     0.000
COTS    1 000010001    1    0  331.18540E+00     0.000
COTS    1 000010001    1    0  332.18540E+00     0.000
COTS    1 000010001    1    0  333.18540E+00     0.800
COTS    1 000010001    1    0  334.18540E+00     4.300
COTS    1 000010001    1    0  335.18540E+00     8.900
COTS    1 000010001    1    0  336.18540E+00     0.000
COTS    1 000010001    1    0  337.18540E+00     0.000
COTS    1 000010001    1    0  338.18540E+00     0.000
COTS    1 000010001    1    0  339.18540E+00     0.000
COTS    1 000010001    1    0  340.18540E+00     0.000
COTS    1 000010001    1    0  341.18540E+00     0.000
COTS    1 000010001    1    0  342.18540E+00     0.000
COTS    1 000010001    1    0  343.18540E+00     0.000
COTS    1 000010001    1    0  344.18540E+00     0.000
COTS    1 000010001    1    0  345.18540E+00     0.000
COTS    1 000010001    1    0  346.18540E+00     0.000
COTS    1 000010001    1    0  347.18540E+00     0.000
COTS    1 000010001    1    0  348.18540E+00     0.000
COTS    1 000010001    1    0  349.18540E+00     0.000
COTS    1 000010001    1    0  350.18540E+00     0.000
[...]
COTS    1 000010001    1    0    4.18540E+00     0.000
COTS    1 000010001    1    0    5.18540E+00     0.000
COTS    1 000010001    1    0    6.18540E+00     0.000
COTS    1 000010001    1    0    7.18540E+00     0.000
COTS    1 000010001    1    0    8.18540E+00     0.000
COTS    1 000010001    1    0    9.18540E+00     0.000
COTS    1 000010001    1    0   10.18540E+00     1.300
COTS    1 000010001    1    0   11.18540E+00    10.900
COTS    1 000010001    1    0   12.18540E+00     0.300
COTS    1 000010001    1    0   13.18540E+00     0.000
COTS    1 000010001    1    0   14.18540E+00     0.000
COTS    1 000010001    1    0   15.18540E+00     0.000
COTS    1 000010001    1    0   16.18540E+00     0.000
COTS    1 000010001    1    0   17.18540E+00     1.000
COTS    1 000010001    1    0   18.18540E+00     9.100
COTS    1 000010001    1    0   19.18540E+00     0.000
COTS    1 000010001    1    0   20.18540E+00     3.100
COTS    1 000010001    1    0   21.18540E+00    20.300
COTS    1 000010001    1    0   22.18540E+00     4.600
COTS    1 000010001    1    0   23.18540E+00     1.800
COTS    1 000010001    1    0   24.18540E+00     0.500
COTS    1 000010001    1    0   25.18540E+00     0.000
COTS    1 000010001    1    0   26.18540E+00    12.700
COTS    1 000010001    1    0   27.18540E+00     1.500
COTS    1 000010001    1    0   28.18540E+00     0.000
COTS    1 000010001    1    0   29.18540E+00     0.000
COTS    1 000010001    1    0   30.18540E+00     0.000
COTS    1 000010001    1    0   31.18540E+00     0.000
COTS    1 000010001    1    0   32.18540E+00     0.800
COTS    1 000010001    1    0   33.18540E+00     0.300
COTS    1 000010001    1    0   34.18540E+00     0.000
COTS    1 000010001    1    0   35.18540E+00     0.000
COTS    1 000010001    1    0   36.18540E+00     0.000
COTS    1 000010001    1    0   37.18540E+00     1.300
COTS    1 000010001    1    0   38.18540E+00     0.000
COTS    1 000010001    1    0   39.18540E+00     0.000
COTS    1 000010001    1    0   40.18540E+00     0.000
COTS    1 000010001    1    0   41.18540E+00     0.000
COTS    1 000010001    1    0   42.18540E+00     0.300
COTS    1 000010001    1    0   43.18540E+00     0.000
COTS    1 000010001    1    0   44.18540E+00     0.000
COTS    1 000010001    1    0   45.18540E+00     2.800
COTS    1 000010001    1    0   46.18540E+00     0.000
COTS    1 000010001    1    0   47.18540E+00     8.400
COTS    1 000010001    1    0   48.18540E+00     0.000
COTS    1 000010001    1    0   49.18540E+00    45.000
COTS    1 000010001    1    0   50.18540E+00    12.500
COTS    1 000010001    1    0   51.18540E+00     0.000
COTS    1 000010001    1    0   52.18540E+00     0.000
COTS    1 000010001    1    0   53.18540E+00     0.000
COTS    1 000010001    1    0   54.18540E+00     0.000
COTS    1 000010001    1    0   55.18540E+00     3.800
COTS    1 000010001    1    0   56.18540E+00     0.000
COTS    1 000010001    1    0   57.18540E+00     0.000
COTS    1 000010001    1    0   58.18540E+00     2.000
COTS    1 000010001    1    0   59.18540E+00     0.000
COTS    1 000010001    1    0   60.18540E+00     0.000
COTS    1 000010001    1    0   61.18540E+00     0.300
COTS    1 000010001    1    0   62.18540E+00     1.300
COTS    1 000010001    1    0   63.18540E+00    60.700
COTS    1 000010001    1    0   64.18540E+00     4.800
COTS    1 000010001    1    0   65.18540E+00     0.000
COTS    1 000010001    1    0   66.18540E+00     0.000
COTS    1 000010001    1    0   67.18540E+00     0.000
COTS    1 000010001    1    0   68.18540E+00     0.000
COTS    1 000010001    1    0   69.18540E+00     0.300
COTS    1 000010001    1    0   70.18540E+00     0.000
COTS    1 000010001    1    0   71.18540E+00     0.000
COTS    1 000010001    1    0   72.18540E+00     0.000
COTS    1 000010001    1    0   73.18540E+00     1.500
COTS    1 000010001    1    0   74.18540E+00     0.000
COTS    1 000010001    1    0   75.18540E+00     0.000
COTS    1 000010001    1    0   76.18540E+00     0.000
COTS    1 000010001    1    0   77.18540E+00     0.000
COTS    1 000010001    1    0   78.18540E+00     0.000
COTS    1 000010001    1    0   79.18540E+00     0.000
COTS    1 000010001    1    0   80.18540E+00     0.000
COTS    1 000010001    1    0   81.18540E+00     0.000
COTS    1 000010001    1    0   82.18540E+00     0.300
COTS    1 000010001    1    0   83.18540E+00    12.700
COTS    1 000010001    1    0   84.18540E+00     0.800
COTS    1 000010001    1    0   85.18540E+00     0.000
COTS    1 000010001    1    0   86.18540E+00     0.000
COTS    1 000010001    1    0   87.18540E+00     0.000
COTS    1 000010001    1    0   88.18540E+00     0.000
COTS    1 000010001    1    0   89.18540E+00     0.000
COTS    1 000010001    1    0   90.18540E+00     9.400
COTS    1 000010001    1    0   91.18540E+00     2.500
COTS    1 000010001    1    0   92.18540E+00     0.000
COTS    1 000010001    1    0   93.18540E+00     0.000
COTS    1 000010001    1    0   94.18540E+00     7.400
COTS    1 000010001    1    0   95.18540E+00     0.000
COTS    1 000010001    1    0   96.18540E+00     6.100
COTS    1 000010001    1    0   97.18540E+00     0.300
COTS    1 000010001    1    0   98.18540E+00     0.000
COTS    1 000010001    1    0   99.18540E+00     0.000
COTS    1 000010001    1    0  100.18540E+00     0.000
COTS    1 000010001    1    0  101.18540E+00     0.000
COTS    1 000010001    1    0  102.18540E+00     0.000
COTS    1 000010001    1    0  103.18540E+00     0.000
COTS    1 000010001    1    0  104.18540E+00     0.000
COTS    1 000010001    1    0  105.18540E+00     0.000
COTS    1 000010001    1    0  106.18540E+00     0.000
COTS    1 000010001    1    0  107.18540E+00     0.000
COTS    1 000010001    1    0  108.18540E+00     0.000
COTS    1 000010001    1    0  109.18540E+00     6.100
COTS    1 000010001    1    0  110.18540E+00     0.000
COTS    1 000010001    1    0  111.18540E+00     0.000
COTS    1 000010001    1    0  112.18540E+00     6.600
COTS    1 000010001    1    0  113.18540E+00     0.500
COTS    1 000010001    1    0  114.18540E+00     0.000
COTS    1 000010001    1    0  115.18540E+00     0.000
COTS    1 000010001    1    0  116.18540E+00     0.000
COTS    1 000010001    1    0  117.18540E+00     0.000
COTS    1 000010001    1    0  118.18540E+00     0.000
COTS    1 000010001    1    0  119.18540E+00     0.000
COTS    1 000010001    1    0  120.18540E+00     0.000
COTS    1 000010001    1    0  121.18540E+00     0.000
PNUT    1 000010001    1    0  122.18540E+00     0.000
PNUT    1 000010001    1    0  123.18540E+00     0.000
PNUT    1 000010001    1    0  124.18540E+00     0.000
PNUT    1 000010001    1    0  125.18540E+00     0.000
PNUT    1 000010001    1    0  126.18540E+00     0.000
PNUT    1 000010001    1    0  127.18540E+00     4.600
PNUT    1 000010001    1    0  128.18540E+00     0.000
PNUT    1 000010001    1    0  129.18540E+00     0.300
PNUT    1 000010001    1    0  130.18540E+00     1.800
PNUT    1 000010001    1    0  131.18540E+00     0.000
PNUT    1 000010001    1    0  132.18540E+00     0.000
PNUT    1 000010001    1    0  133.18540E+00     0.000
PNUT    1 000010001    1    0  134.18540E+00     4.600
PNUT    1 000010001    1    0  135.18540E+00     1.000
PNUT    1 000010001    1    0  136.18540E+00     0.000
PNUT    1 000010001    1    0  137.18540E+00    12.700
PNUT    1 000010001    1    0  138.18540E+00     4.800
PNUT    1 000010001    1    0  139.18540E+00     0.000
PNUT    1 000010001    1    0  140.18540E+00     0.000
PNUT    1 000010001    1    0  141.18540E+00     0.000
PNUT    1 000010001    1    0  142.18540E+00     0.000
PNUT    1 000010001    1    0  143.18540E+00     0.000
PNUT    1 000010001    1    0  144.18540E+00     0.000
PNUT    1 000010001    1    0  145.18540E+00     0.000
PNUT    1 000010001    1    0  146.18540E+00     0.000
PNUT    1 000010001    1    0  147.18540E+00     0.000
PNUT    1 000010001    1    0  148.18540E+00     0.000
PNUT    1 000010001    1    0  149.18540E+00     4.300
PNUT    1 000010001    1    0  150.18540E+00     8.600
PNUT    1 000010001    1    0  151.18540E+00     8.400
PNUT    1 000010001    1    0  152.18540E+00     3.800
PNUT    1 000010001    1    0  153.18540E+00     0.000
PNUT    1 000010001    1    0  154.18540E+00     0.000
PNUT    1 000010001    1    0  155.18540E+00     0.000
PNUT    1 000010001    1    0  156.18540E+00     0.000
PNUT    1 000010001    1    0  157.18540E+00     2.300
PNUT    1 000010001    1    0  158.18540E+00    35.600
PNUT    1 000010001    1    0  159.18540E+00     6.600
PNUT    1 000010001    1    0  160.18540E+00     0.000
PNUT    1 000010001    1    0  161.18540E+00     4.100
PNUT    1 000010001    1    0  162.18540E+00    39.100
PNUT    1 000010001    1    0  163.18540E+00     9.900
PNUT    1 000010001    1    0  164.18540E+00     0.000
PNUT    1 000010001    1    0  165.18540E+00     0.000
PNUT    1 000010001    1    0  166.18540E+00     0.000
PNUT    1 000010001    1    0  167.18540E+00     0.000
PNUT    1 000010001    1    0  168.18540E+00     0.000
PNUT    1 000010001    1    0  169.18540E+00     0.000
PNUT    1 000010001    1    0  170.18540E+00     0.000
PNUT    1 000010001    1    0  171.18540E+00     0.000
PNUT    1 000010001    1    0  172.18540E+00     0.000
PNUT    1 000010001    1    0  173.18540E+00     0.000
PNUT    1 000010001    1    0  174.18540E+00     0.000
PNUT    1 000010001    1    0  175.18540E+00     0.000
PNUT    1 000010001    1    0  176.18540E+00     3.300
PNUT    1 000010001    1    0  177.18540E+00     0.000
PNUT    1 000010001    1    0  178.18540E+00     0.000
PNUT    1 000010001    1    0  179.18540E+00     0.000
PNUT    1 000010001    1    0  180.18540E+00     0.000
PNUT    1 000010001    1    0  181.18540E+00     0.000
PNUT    1 000010001    1    0  182.18540E+00     0.000
PNUT    1 000010001    1    0  183.18540E+00    11.900
PNUT    1 000010001    1    0  184.18540E+00     2.000
PNUT    1 000010001    1    0  185.18540E+00     3.300
PNUT    1 000010001    1    0  186.18540E+00     0.000
PNUT    1 000010001    1    0  187.18540E+00     0.000
PNUT    1 000010001    1    0  188.18540E+00     0.000
PNUT    1 000010001    1    0  189.18540E+00     0.000
PNUT    1 000010001    1    0  190.18540E+00     0.000
PNUT    1 000010001    1    0  191.18540E+00     0.000
PNUT    1 000010001    1    0  192.18540E+00     0.000
PNUT    1 000010001    1    0  193.18540E+00     5.800
PNUT    1 000010001    1    0  194.18540E+00     0.300
PNUT    1 000010001    1    0  195.18540E+00     0.300
PNUT    1 000010001    1    0  196.18540E+00     2.800
PNUT    1 000010001    1    0  197.18540E+00     0.000
PNUT    1 000010001    1    0  198.18540E+00     0.000
PNUT    1 000010001    1    0  199.18540E+00    21.600
PNUT    1 000010001    1    0  200.18540E+00     0.000
PNUT    1 000010001    1    0  201.18540E+00    15.800
PNUT    1 000010001    1    0  202.18540E+00     0.000
PNUT    1 000010001    1    0  203.18540E+00     0.000
PNUT    1 000010001    1    0  204.18540E+00     0.000
PNUT    1 000010001    1    0  205.18540E+00     0.000
PNUT    1 000010001    1    0  206.18540E+00     0.000
PNUT    1 000010001    1    0  207.18540E+00     0.000
PNUT    1 000010001    1    0  208.18540E+00     0.000
PNUT    1 000010001    1    0  209.18540E+00    45.700
PNUT    1 000010001    1    0  210.18540E+00     0.000
PNUT    1 000010001    1    0  211.18540E+00     0.000
PNUT    1 000010001    1    0  212.18540E+00     0.000
PNUT    1 000010001    1    0  213.18540E+00     0.000
PNUT    1 000010001    1    0  214.18540E+00     5.800
PNUT    1 000010001    1    0  215.18540E+00     0.000
PNUT    1 000010001    1    0  216.18540E+00     0.000
PNUT    1 000010001    1    0  217.18540E+00     0.000
PNUT    1 000010001    1    0  218.18540E+00    56.400
PNUT    1 000010001    1    0  219.18540E+00     0.300
PNUT    1 000010001    1    0  220.18540E+00     1.800
PNUT    1 000010001    1    0  221.18540E+00    13.700
PNUT    1 000010001    1    0  222.18540E+00     3.600
PNUT    1 000010001    1    0  223.18540E+00     0.000
PNUT    1 000010001    1    0  224.18540E+00     5.800
PNUT    1 000010001    1    0  225.18540E+00     0.300
PNUT    1 000010001    1    0  226.18540E+00     0.000
PNUT    1 000010001    1    0  227.18540E+00     0.000
PNUT    1 000010001    1    0  228.18540E+00     0.000
PNUT    1 000010001    1    0  229.18540E+00    14.000
PNUT    1 000010001    1    0  230.18540E+00     3.600
PNUT    1 000010001    1    0  231.18540E+00     0.300
PNUT    1 000010001    1    0  232.18540E+00     3.300
PNUT    1 000010001    1    0  233.18540E+00     1.000
PNUT    1 000010001    1    0  234.18540E+00     0.000
PNUT    1 000010001    1    0  235.18540E+00     0.000
PNUT    1 000010001    1    0  236.18540E+00    37.600
PNUT    1 000010001    1    0  237.18540E+00     0.000
PNUT    1 000010001    1    0  238.18540E+00     0.000
PNUT    1 000010001    1    0  239.18540E+00     0.000
PNUT    1 000010001    1    0  240.18540E+00    10.900
PNUT    1 000010001    1    0  241.18540E+00     0.000
PNUT    1 000010001    1    0  242.18540E+00    10.900
PNUT    1 000010001    1    0  243.18540E+00     0.000
PNUT    1 000010001    1    0  244.18540E+00     0.000
PNUT    1 000010001    1    0  245.18540E+00     0.000
PNUT    1 000010001    1    0  246.18540E+00     0.000
PNUT    1 000010001    1    0  247.18540E+00     0.500
PNUT    1 000010001    1    0  248.18540E+00    18.000
PNUT    1 000010001    1    0  249.18540E+00     0.000
PNUT    1 000010001    1    0  250.18540E+00     0.000
PNUT    1 000010001    1    0  251.18540E+00     0.000
PNUT    1 000010001    1    0  252.18540E+00    15.000
PNUT    1 000010001    1    0  253.18540E+00     0.000
PNUT    1 000010001    1    0  254.18540E+00     0.000
PNUT    1 000010001    1    0  255.18540E+00     0.000
PNUT    1 000010001    1    0  256.18540E+00     0.000
PNUT    1 000010001    1    0  257.18540E+00     0.000
PNUT    1 000010001    1    0  258.18540E+00     0.000
PNUT    1 000010001    1    0  259.18540E+00     0.000
PNUT    1 000010001    1    0  260.18540E+00     0.000
PNUT    1 000010001    1    0  261.18540E+00     9.400
PNUT    1 000010001    1    0  262.18540E+00    13.500
PNUT    1 000010001    1    0  263.18540E+00     0.300
PNUT    1 000010001    1    0  264.18540E+00     0.000
PNUT    1 000010001    1    0  265.18540E+00     0.000
PNUT    1 000010001    1    0  266.18540E+00     0.000
PNUT    1 000010001    1    0  267.18540E+00     0.000
PNUT    1 000010001    1    0  268.18540E+00     0.000
PNUT    1 000010001    1    0  269.18540E+00     0.000
PNUT    1 000010001    1    0  270.18540E+00     0.000
PNUT    1 000010001    1    0  271.18540E+00     0.000
PNUT    1 000010001    1    0  272.18540E+00     0.000
PNUT    1 000010001    1    0  273.18540E+00     5.300
PNUT    1 000010001    1    0  274.18540E+00     9.100
PNUT    1 000010001    1    0  275.18540E+00     2.800
PNUT    1 000010001    1    0  276.18540E+00     2.500
PNUT    1 000010001    1    0  277.18540E+00     5.600
PNUT    1 000010001    1    0  278.18540E+00     1.000
PNUT    1 000010001    1    0  279.18540E+00     0.000
PNUT    1 000010001    1    0  280.18540E+00     0.000
PNUT    1 000010001    1    0  281.18540E+00     0.000
PNUT    1 000010001    1    0  282.18540E+00     0.000
PNUT    1 000010001    1    0  283.18540E+00     0.000
PNUT    1 000010001    1    0  284.18540E+00     0.000
PNUT    1 000010001    1    0  285.18540E+00     0.000
PNUT    1 000010001    1    0  286.18540E+00     0.000
PNUT    1 000010001    1    0  287.18540E+00     0.000
PNUT    1 000010001    1    0  288.18540E+00     0.000
PNUT    1 000010001    1    0  289.18540E+00     0.000
PNUT    1 000010001    1    0  290.18540E+00     0.000
PNUT    1 000010001    1    0  291.18540E+00     0.000
PNUT    1 000010001    1    0  292.18540E+00     0.000
PNUT    1 000010001    1    0  293.18540E+00     0.300
PNUT    1 000010001    1    0  294.18540E+00     0.000
PNUT    1 000010001    1    0  295.18540E+00     0.000
PNUT    1 000010001    1    0  296.18540E+00     0.000
PNUT    1 000010001    1    0  297.18540E+00     0.000
PNUT    1 000010001    1    0  298.18540E+00     0.000
PNUT    1 000010001    1    0  299.18540E+00     0.000
PNUT    1 000010001    1    0  300.18540E+00     0.000
PNUT    1 000010001    1    0  301.18540E+00     0.000
PNUT    1 000010001    1    0  302.18540E+00     0.000
PNUT    1 000010001    1    0  303.18540E+00     0.000
PNUT    1 000010001    1    0  304.18540E+00     0.000
PNUT    1 000010001    1    0  305.18540E+00     0.000
PNUT    1 000010001    1    0  306.18540E+00     0.000
PNUT    1 000010001    1    0  307.18540E+00     0.000
PNUT    1 000010001    1    0  308.18540E+00     0.000
PNUT    1 000010001    1    0  309.18540E+00     0.000
PNUT    1 000010001    1    0  310.18540E+00     0.000
PNUT    1 000010001    1    0  311.18540E+00     1.500
PNUT    1 000010001    1    0  312.18540E+00     0.000
PNUT    1 000010001    1    0  313.18540E+00     0.000
PNUT    1 000010001    1    0  314.18540E+00     0.300
PNUT    1 000010001    1    0  315.18540E+00     0.000
PNUT    1 000010001    1    0  316.18540E+00     0.000
PNUT    1 000010001    1    0  317.18540E+00     0.000
PNUT    1 000010001    1    0  318.18540E+00     0.000
PNUT    1 000010001    1    0  319.18540E+00     2.500
PNUT    1 000010001    1    0  320.18540E+00     0.800
PNUT    1 000010001    1    0  321.18540E+00     0.300
PNUT    1 000010001    1    0  322.18540E+00     0.000
PNUT    1 000010001    1    0  323.18540E+00     0.000
PNUT    1 000010001    1    0  324.18540E+00     0.000
PNUT    1 000010001    1    0  325.18540E+00     0.000
PNUT    1 000010001    1    0  326.18540E+00     0.000
PNUT    1 000010001    1    0  327.18540E+00     0.000
PNUT    1 000010001    1    0  328.18540E+00     0.000
PNUT    1 000010001    1    0  329.18540E+00     0.000
PNUT    1 000010001    1    0  330.18540E+00     0.000
PNUT    1 000010001    1    0  331.18540E+00     0.000
PNUT    1 000010001    1    0  332.18540E+00    24.900
PNUT    1 000010001    1    0  333.18540E+00     0.000
PNUT    1 000010001    1    0  334.18540E+00     0.000
PNUT    1 000010001    1    0  335.18540E+00     0.000
PNUT    1 000010001    1    0  336.18540E+00     0.000
PNUT    1 000010001    1    0  337.18540E+00     0.000
PNUT    1 000010001    1    0  338.18540E+00     0.000
PNUT    1 000010001    1    0  339.18540E+00     0.000
PNUT    1 000010001    1    0  340.18540E+00     0.000
PNUT    1 000010001    1    0  341.18540E+00     0.000
PNUT    1 000010001    1    0  342.18540E+00     0.000
PNUT    1 000010001    1    0  343.18540E+00     0.000
PNUT    1 000010001    1    0  344.18540E+00     0.000
PNUT    1 000010001    1    0  345.18540E+00     0.300
PNUT    1 000010001    1    0  346.18540E+00     0.300
PNUT    1 000010001    1    0  347.18540E+00    16.000
PNUT    1 000010001    1    0  348.18540E+00     0.300
PNUT    1 000010001    1    0  349.18540E+00     0.000
PNUT    1 000010001    1    0  350.18540E+00     0.000
PNUT    1 000010001    1    0  351.18540E+00     3.100
PNUT    1 000010001    1    0  352.18540E+00    19.100
PNUT    1 000010001    1    0  353.18540E+00     0.000
PNUT    1 000010001    1    0  354.18540E+00     0.000
PNUT    1 000010001    1    0  355.18540E+00    17.300
PNUT    1 000010001    1    0  356.18540E+00     0.000
PNUT    1 000010001    1    0  357.18540E+00     0.000
PNUT    1 000010001    1    0  358.18540E+00     0.000
PNUT    1 000010001    1    0  359.18540E+00    11.700
PNUT    1 000010001    1    0  360.18540E+00     9.100
PNUT    1 000010001    1    0  361.18540E+00     7.400
PNUT    1 000010001    1    0  362.18540E+00     0.000
PNUT    1 000010001    1    0  363.18540E+00     0.000
PNUT    1 000010001    1    0  364.18540E+00    20.100
PNUT    1 000010001    1    0  365.18540E+00     0.000
PNUT    1 000010001    1    0  366.18540E+00     0.000
