1
    SWAT Sep 7    VER 2018/Rev 670                                                                       0/ 0/   0      0: 0: 0

    General Input/Output section (file.cio):                                        
    11/27/2018 12:00:00 AM ARCGIS-SWAT interface AV                                 
                                                                                    
         Number of years in run:   13
         Area of watershed:       21.963 km2
1
    SWAT Sep 7    VER 2018/Rev 670                                                  

    General Input/Output section (file.cio):                                        
    11/27/2018 12:00:00 AM ARCGIS-SWAT interface AV                                 
                                                                                    
Annual Summary for Watershed in year    1 of simulation

UNIT                                    PERCO    TILE                           WATER     SED     NO3     NO3     NO3     NO3        N       P       P
TIME     PREC    SURQ    LATQ     GWQ    LATE       Q     SW       ET     PET   YIELD   YIELD    SURQ    LATQ    PERC    CROP  ORGANIC SOLUBLE ORGANIC TILENO3
         (mm)    (mm)    (mm)    (mm)    (mm)    (mm)    (mm)    (mm)    (mm)    (mm)   (t/ha)  ------------------(kg nutrient/ha)-------------------- (kg/ha)
1
    SWAT Sep 7    VER 2018/Rev 670                                                  

    General Input/Output section (file.cio):                                        
    11/27/2018 12:00:00 AM ARCGIS-SWAT interface AV                                 
                                                                                    
Annual Summary for Watershed in year    2 of simulation

UNIT                                    PERCO    TILE                           WATER     SED     NO3     NO3     NO3     NO3        N       P       P
TIME     PREC    SURQ    LATQ     GWQ    LATE       Q     SW       ET     PET   YIELD   YIELD    SURQ    LATQ    PERC    CROP  ORGANIC SOLUBLE ORGANIC TILENO3
         (mm)    (mm)    (mm)    (mm)    (mm)    (mm)    (mm)    (mm)    (mm)    (mm)   (t/ha)  ------------------(kg nutrient/ha)-------------------- (kg/ha)
1
    SWAT Sep 7    VER 2018/Rev 670                                                  

    General Input/Output section (file.cio):                                        
    11/27/2018 12:00:00 AM ARCGIS-SWAT interface AV                                 
                                                                                    
Annual Summary for Watershed in year    3 of simulation

UNIT                                    PERCO    TILE                           WATER     SED     NO3     NO3     NO3     NO3        N       P       P
TIME     PREC    SURQ    LATQ     GWQ    LATE       Q     SW       ET     PET   YIELD   YIELD    SURQ    LATQ    PERC    CROP  ORGANIC SOLUBLE ORGANIC TILENO3
         (mm)    (mm)    (mm)    (mm)    (mm)    (mm)    (mm)    (mm)    (mm)    (mm)   (t/ha)  ------------------(kg nutrient/ha)-------------------- (kg/ha)
1
    SWAT Sep 7    VER 2018/Rev 670                                                  

    General Input/Output section (file.cio):                                        
    11/27/2018 12:00:00 AM ARCGIS-SWAT interface AV                                 
                                                                                    
Annual Summary for Watershed in year    4 of simulation

UNIT                                    PERCO    TILE                           WATER     SED     NO3     NO3     NO3     NO3        N       P       P
TIME     PREC    SURQ    LATQ     GWQ    LATE       Q     SW       ET     PET   YIELD   YIELD    SURQ    LATQ    PERC    CROP  ORGANIC SOLUBLE ORGANIC TILENO3
         (mm)    (mm)    (mm)    (mm)    (mm)    (mm)    (mm)    (mm)    (mm)    (mm)   (t/ha)  ------------------(kg nutrient/ha)-------------------- (kg/ha)
    1    4.30    0.01    0.26    1.20    3.72    0.00  184.64    0.72    1.02    1.57    0.00    0.00    0.01    0.39    0.00     0.00    0.00    0.00    0.00
    2    0.38    0.00    0.18    1.22    0.48    0.00  183.26    1.32    1.82    1.44    0.00    0.00    0.00    0.02    0.00     0.00    0.00    0.00    0.00
    3    0.00    0.00    0.13    1.24    0.18    0.00  182.46    0.63    1.27    1.41    0.00    0.00    0.00    0.01    0.00     0.00    0.00    0.00    0.00
    4    0.00    0.00    0.10    1.25    0.09    0.00  181.72    0.71    1.54    1.39    0.00    0.00    0.00    0.00    0.00     0.00    0.00    0.00    0.00
    5    0.00    0.00    0.07    1.27    0.04    0.00  181.02    0.72    1.71    1.37    0.00    0.00    0.00    0.00    0.00     0.00    0.00    0.00    0.00
    6    0.00    0.00    0.05    1.27    0.02    0.00  180.22    0.83    2.15    1.36    0.00    0.00    0.00    0.00    0.00     0.00    0.00    0.00    0.00
    7    0.00    0.00    0.04    1.28    0.01    0.00  179.56    0.71    1.96    1.36    0.00    0.00    0.00    0.00    0.00     0.00    0.00    0.00    0.00
    8    0.00    0.00    0.03    1.29    0.01    0.00  178.63    0.98    2.90    1.35    0.00    0.00    0.00    0.00    0.00     0.00    0.00    0.00    0.00
    9    0.00    0.00    0.02    1.29    0.00    0.00  177.79    0.90    2.85    1.35    0.00    0.00    0.00    0.00    0.00     0.00    0.00    0.00    0.00
   10    0.00    0.00    0.02    1.29    0.00    0.00  177.13    0.70    2.38    1.35    0.00    0.00    0.00    0.00    0.00     0.00    0.00    0.00    0.00
   11    0.00    0.00    0.01    1.29    0.00    0.00  176.41    0.77    2.71    1.34    0.00    0.00    0.00    0.00    0.00     0.00    0.00    0.00    0.00
   12    0.00    0.00    0.01    1.29    0.00    0.00  175.84    0.60    2.28    1.34    0.00    0.00    0.00    0.00    0.00     0.00    0.00    0.00    0.00
   13    0.00    0.00    0.01    1.28    0.00    0.00  175.44    0.42    1.62    1.33    0.00    0.00    0.00    0.00    0.00     0.00    0.00    0.00    0.00
   14    0.00    0.00    0.01    1.27    0.00    0.00  174.89    0.62    2.40    1.32    0.00    0.00    0.00    0.00    0.00     0.00    0.00    0.00    0.00
   15    0.00    0.00    0.00    1.27    0.00    0.00  174.32    0.63    2.54    1.31    0.00    0.00    0.00    0.00    0.00     0.00    0.00    0.00    0.00
   16    1.31    0.00    0.01    1.26    0.00    0.00  174.54    1.10    2.24    1.30    0.00    0.00    0.00    0.00    0.00     0.00    0.00    0.00    0.00
   17    0.12    0.00    0.01    1.25    0.00    0.00  173.97    0.73    2.23    1.29    0.00    0.00    0.00    0.00    0.00     0.00    0.00    0.00    0.00
   18    0.00    0.00    0.00    1.23    0.00    0.00  173.51    0.51    1.94    1.28    0.00    0.00    0.00    0.00    0.00     0.00    0.00    0.00    0.00
   19    0.00    0.00    0.00    1.22    0.00    0.00  172.93    0.65    2.73    1.27    0.00    0.00    0.00    0.00    0.00     0.00    0.00    0.00    0.00
   20    0.00    0.00    0.00    1.21    0.00    0.00  172.34    0.65    2.89    1.25    0.00    0.00    0.00    0.00    0.00     0.00    0.00    0.00    0.00
   21    0.00    0.00    0.00    1.20    0.00    0.00  172.04    0.35    1.58    1.24    0.00    0.00    0.00    0.00    0.00     0.00    0.00    0.00    0.00
   22    1.45    0.00    0.01    1.18    0.00    0.00  173.04    0.43    0.67    1.23    0.00    0.00    0.00    0.00    0.00     0.00    0.00    0.00    0.00
   23    0.12    0.00    0.00    1.17    0.00    0.00  172.24    0.97    2.52    1.21    0.00    0.00    0.00    0.00    0.00     0.00    0.00    0.00    0.00
   24    0.00    0.00    0.00    1.15    0.00    0.00  171.80    0.49    1.86    1.19    0.00    0.00    0.00    0.00    0.00     0.00    0.00    0.00    0.00
   25    0.00    0.00    0.00    1.13    0.00    0.00  171.59    0.25    1.03    1.18    0.00    0.00    0.00    0.00    0.00     0.00    0.00    0.00    0.00
   26    0.00    0.00    0.00    1.12    0.00    0.00  171.18    0.46    2.08    1.16    0.00    0.00    0.00    0.00    0.00     0.00    0.00    0.00    0.00
   27    0.00    0.00    0.00    1.10    0.00    0.00  170.76    0.48    2.26    1.14    0.00    0.00    0.00    0.00    0.00     0.00    0.00    0.00    0.00
   28    0.00    0.00    0.00    1.08    0.00    0.00  170.34    0.48    2.33    1.12    0.00    0.00    0.00    0.00    0.00     0.00    0.00    0.00    0.00
   29    0.00    0.00    0.00    1.06    0.00    0.00  169.66    0.75    3.85    1.11    0.00    0.00    0.00    0.00    0.00     0.00    0.00    0.00    0.00
   30    1.70    0.00    0.00    1.05    0.00    0.00  170.99    0.34    0.53    1.09    0.00    0.00    0.00    0.00    0.00     0.00    0.00    0.00    0.00
   31    0.00    0.00    0.00    1.03    0.00    0.00  170.46    0.59    1.49    1.07    0.00    0.00    0.00    0.00    0.00     0.00    0.00    0.00    0.00
    1    9.38    0.01    0.98   37.42    4.55    0.00  170.46   20.48   63.37   39.74    0.00    0.00    0.03    0.42    0.00     0.00    0.00    0.00    0.00
   32    0.00    0.00    0.00    1.01    0.00    0.00  169.78    0.76    2.97    1.05    0.00    0.00    0.00    0.00    0.00     0.00    0.00    0.00    0.00
   33    0.00    0.00    0.00    0.99    0.00    0.00  169.32    0.53    2.41    1.03    0.00    0.00    0.00    0.00    0.00     0.00    0.00    0.00    0.00
   34    0.00    0.00    0.00    0.97    0.00    0.00  169.20    0.15    0.67    1.02    0.00    0.00    0.00    0.00    0.00     0.00    0.00    0.00    0.00
   35    1.43    0.00    0.00    0.95    0.00    0.00  169.58    1.07    2.54    1.00    0.00    0.00    0.00    0.00    0.00     0.00    0.00    0.00    0.00
   36    0.00    0.00    0.00    0.94    0.00    0.00  168.93    0.72    3.08    0.98    0.00    0.00    0.00    0.00    0.00     0.00    0.00    0.00    0.00
   37   18.35    2.04    0.11    0.92    1.10    0.00  182.29    1.08    1.26    3.08    0.07    0.04    0.00    0.02    0.00     0.09    0.00    0.01    0.00
   38    0.73    0.00    0.08    0.90    0.07    0.00  182.71    0.22    0.26    1.04    0.00    0.00    0.00    0.00    0.00     0.00    0.00    0.00    0.00
   39    0.00    0.00    0.05    0.89    0.02    0.00  181.36    1.38    1.93    0.98    0.00    0.00    0.00    0.00    0.00     0.00    0.00    0.00    0.00
   40    0.57    0.00    0.04    0.87    0.01    0.00  180.74    1.21    1.65    0.95    0.00    0.00    0.00    0.00    0.00     0.00    0.00    0.00    0.00
   41    5.35    0.03    0.07    0.85    1.58    0.00  182.50    1.78    2.38    1.00    0.00    0.00    0.00    0.07    0.00     0.00    0.00    0.00    0.00
   42    0.00    0.00    0.05    0.84    0.12    0.00  181.23    1.23    2.40    0.93    0.00    0.00    0.00    0.00    0.00     0.00    0.00    0.00    0.00
   43    0.00    0.00    0.04    0.83    0.03    0.00  179.88    1.40    3.27    0.90    0.00    0.00    0.00    0.00    0.00     0.00    0.00    0.00    0.00
   44    0.00    0.00    0.03    0.81    0.02    0.00  178.66    1.29    3.43    0.88    0.00    0.00    0.00    0.00    0.00     0.00    0.00    0.00    0.00
   45    0.00    0.00    0.02    0.80    0.01    0.00  177.53    1.18    3.51    0.86    0.00    0.00    0.00    0.00    0.00     0.00    0.00    0.00    0.00
   46    0.00    0.00    0.01    0.78    0.00    0.00  176.57    1.04    3.32    0.83    0.00    0.00    0.00    0.00    0.00     0.00    0.00    0.00    0.00
   47   30.27    7.50    0.26    0.78   11.91    0.00  183.62    2.21    3.14    8.48    0.26    0.07    0.01    1.29    0.00     0.33    0.01    0.05    0.00
   48    0.19    0.00    0.19    0.78    0.81    0.00  182.74    0.27    0.46    1.11    0.00    0.00    0.01    0.04    0.00     0.00    0.00    0.00    0.00
   49    0.00    0.00    0.13    0.79    0.26    0.00  181.82    0.72    1.30    0.96    0.00    0.00    0.00    0.01    0.00     0.00    0.00    0.00    0.00
   50    0.11    0.00    0.10    0.79    0.12    0.00  180.79    1.10    2.17    0.92    0.00    0.00    0.00    0.00    0.00     0.00    0.00    0.00    0.00
   51    0.00    0.00    0.07    0.78    0.06    0.00  180.24    0.52    1.22    0.89    0.00    0.00    0.00    0.00    0.00     0.00    0.00    0.00    0.00
   52    0.00    0.00    0.05    0.78    0.03    0.00  179.92    0.33    0.80    0.87    0.00    0.00    0.00    0.00    0.00     0.00    0.00    0.00    0.00
   53   19.98    3.15    0.23    0.79    9.98    0.00  184.62    1.00    1.13    4.16    0.12    0.04    0.01    1.23    0.00     0.16    0.00    0.03    0.00
   54    0.42    0.00    0.17    0.80    0.69    0.00  182.21    2.22    3.39    1.05    0.00    0.00    0.01    0.04    0.00     0.00    0.00    0.00    0.00
   55    0.00    0.00    0.12    0.81    0.21    0.00  180.81    1.28    2.71    0.97    0.00    0.00    0.00    0.01    0.00     0.00    0.00    0.00    0.00
   56    0.00    0.00    0.09    0.82    0.09    0.00  179.75    1.05    2.60    0.94    0.00    0.00    0.00    0.00    0.00     0.00    0.00    0.00    0.00
   57    9.07    0.25    0.14    0.83    3.19    0.00  183.54    1.40    1.65    1.26    0.01    0.01    0.00    0.36    0.00     0.01    0.00    0.00    0.00
   58   15.67    1.77    0.28    0.85   10.63    0.00  183.89    1.90    2.53    2.92    0.05    0.01    0.01    1.39    0.00     0.07    0.00    0.01    0.00
   59    0.00    0.00    0.20    0.87    0.79    0.00  182.37    0.80    1.49    1.13    0.00    0.00    0.01    0.05    0.00     0.00    0.00    0.00    0.00
    2  102.13   14.73    2.53   23.82   41.73    0.00  182.37   29.83   59.66   42.21    0.50    0.17    0.08    4.52    0.00     0.67    0.01    0.11    0.00
   60   24.00    4.95    0.39    0.91   13.74    0.00  184.34    1.89    2.51    6.23    0.17    0.02    0.01    1.79    0.00     0.21    0.00    0.03    0.00
   61    2.14    0.00    0.29    0.94    1.51    0.00  184.10    0.80    0.90    1.34    0.00    0.00    0.01    0.10    0.00     0.00    0.00    0.00    0.00
   62    3.98    0.00    0.25    0.97    2.73    0.00  184.02    1.12    1.25    1.28    0.00    0.00    0.01    0.30    0.00     0.00    0.00    0.00    0.00
   63    5.84    0.03    0.25    1.01    4.24    0.00  182.99    2.21    3.07    1.34    0.00    0.00    0.01    0.52    0.00     0.00    0.00    0.00    0.00
   64    1.64    0.00    0.19    1.04    0.46    0.00  183.14    1.03    1.16    1.27    0.00    0.00    0.00    0.03    0.00     0.00    0.00    0.00    0.00
   65    1.21    0.00    0.14    1.07    0.49    0.00  183.46    0.38    0.43    1.26    0.00    0.00    0.00    0.03    0.00     0.00    0.00    0.00    0.00
   66   18.72    2.81    0.32    1.12   12.23    0.00  184.80    1.16    1.30    4.25    0.09    0.01    0.01    1.62    0.00     0.11    0.00    0.02    0.00
   67    0.12    0.00    0.23    1.15    0.88    0.00  182.92    1.18    1.89    1.47    0.00    0.00    0.01    0.06    0.00     0.00    0.00    0.00    0.00
   68    4.77    0.01    0.21    1.19    2.42    0.00  184.18    0.84    0.94    1.46    0.00    0.00    0.00    0.27    0.00     0.00    0.00    0.00    0.00
   69    0.00    0.00    0.15    1.23    0.28    0.00  181.95    2.07    3.52    1.42    0.00    0.00    0.00    0.02    0.00     0.00    0.00    0.00    0.00
   70    0.00    0.00    0.11    1.26    0.10    0.00  180.64    1.29    2.82    1.41    0.00    0.00    0.00    0.01    0.00     0.00    0.00    0.00    0.00
   71    0.00    0.00    0.08    1.28    0.05    0.00  179.39    1.29    3.20    1.41    0.00    0.00    0.00    0.00    0.00     0.00    0.00    0.00    0.00
   72    4.94    0.01    0.08    1.30    0.23    0.00  181.78    2.21    3.11    1.44    0.00    0.00    0.00    0.02    0.00     0.00    0.00    0.00    0.00
   73    0.38    0.00    0.06    1.32    0.03    0.00  181.24    0.92    1.32    1.43    0.00    0.00    0.00    0.00    0.00     0.00    0.00    0.00    0.00
   74   13.41    1.09    0.19    1.35    7.42    0.00  184.71    0.62    0.68    2.65    0.04    0.01    0.00    0.95    0.00     0.05    0.00    0.01    0.00
   75    0.45    0.00    0.13    1.37    0.50    0.00  182.75    1.98    2.64    1.57    0.00    0.00    0.00    0.03    0.00     0.00    0.00    0.00    0.00
   76   24.54    5.21    0.35    1.41   14.39    0.00  185.38    0.84    0.93    6.96    0.25    0.02    0.01    1.83    0.00     0.28    0.00    0.04    0.00
   77    1.18    0.00    0.26    1.44    1.61    0.00  183.34    1.61    2.10    1.82    0.00    0.00    0.01    0.16    0.00     0.00    0.00    0.00    0.00
   78    5.10    0.01    0.24    1.48    3.03    0.00  183.70    1.45    1.70    1.79    0.00    0.00    0.00    0.35    0.00     0.00    0.00    0.00    0.00
   79   28.86    7.50    0.47    1.53   16.76    0.00  185.14    1.48    1.73    9.46    0.29    0.02    0.01    2.00    0.00     0.33    0.00    0.05    0.00
   80    0.00    0.00    0.33    1.58    1.26    0.00  181.60    2.40    4.50    2.06    0.00    0.00    0.01    0.08    0.00     0.00    0.00    0.00    0.00
   81    0.00    0.00    0.24    1.62    0.41    0.00  179.66    1.66    3.94    1.92    0.00    0.00    0.00    0.02    0.00     0.00    0.00    0.00    0.00
   82    0.00    0.00    0.17    1.66    0.18    0.00  178.38    1.20    3.25    1.89    0.00    0.00    0.00    0.01    0.00     0.00    0.00    0.00    0.00
   83    0.00    0.00    0.12    1.70    0.09    0.00  176.97    1.44    4.27    1.88    0.00    0.00    0.00    0.01    0.00     0.00    0.00    0.00    0.00
   84    0.00    0.00    0.09    1.72    0.04    0.00  175.70    1.35    4.40    1.87    0.00    0.00    0.00    0.00    0.00     0.00    0.00    0.00    0.00
   85    0.00    0.00    0.07    1.75    0.02    0.00  174.62    1.17    4.12    1.87    0.00    0.00    0.00    0.00    0.00     0.00    0.00    0.00    0.00
   86    0.00    0.00    0.05    1.77    0.01    0.00  173.97    0.72    2.68    1.87    0.00    0.00    0.00    0.00    0.00     0.00    0.00    0.00    0.00
   87    0.00    0.00    0.04    1.78    0.01    0.00  173.61    0.41    1.59    1.87    0.00    0.00    0.00    0.00    0.00     0.00    0.00    0.00    0.00
   88    0.00    0.00    0.03    1.79    0.00    0.00  172.81    0.90    3.56    1.88    0.00    0.00    0.00    0.00    0.00     0.00    0.00    0.00    0.00
   89    6.89    0.06    0.04    1.80    0.00    0.00  177.54    1.93    3.09    1.96    0.00    0.00    0.00    0.00    0.01     0.00    0.00    0.00    0.00
   90    0.00    0.00    0.03    1.80    0.00    0.00  175.90    1.75    4.13    1.90    0.00    0.00    0.00    0.00    0.00     0.00    0.00    0.00    0.00
    3  148.16   21.70    5.62   43.34   85.14    0.00  175.90   41.31   76.74   72.20    0.85    0.08    0.12   10.23    0.01     1.00    0.01    0.15    0.00
   91    0.00    0.00    0.02    1.80    0.00    0.00  174.48    1.54    4.25    1.89    0.00    0.00    0.00    0.00    0.06     0.00    0.00    0.00    0.00
   92    0.00    0.00    0.02    1.80    0.00    0.00  172.93    1.66    4.97    1.88    0.00    0.00    0.00    0.00    0.18     0.00    0.00    0.00    0.00
   93    0.00    0.00    0.01    1.80    0.00    0.00  171.81    1.25    4.18    1.87    0.00    0.00    0.00    0.00    0.23     0.00    0.00    0.00    0.00
   94    0.00    0.00    0.01    1.79    0.00    0.00  170.78    1.15    4.07    1.86    0.00    0.00    0.00    0.00    0.41     0.00    0.00    0.00    0.00
   95    1.63    0.00    0.01    1.78    0.00    0.00  171.33    1.10    2.05    1.86    0.00    0.00    0.00    0.00    0.29     0.00    0.00    0.00    0.00
   96    0.00    0.00    0.01    1.77    0.00    0.00  170.32    1.10    3.47    1.84    0.00    0.00    0.00    0.00    0.37     0.00    0.00    0.00    0.00
   97   20.11    2.66    0.14    1.76    2.37    0.00  183.07    1.46    1.62    4.58    0.12    0.06    0.01    0.19    0.20     0.13    0.00    0.02    0.00
   98   49.97   21.05    0.50    1.78   22.28    0.00  184.30    2.84    3.64   23.18    1.28    0.11    0.03    2.96    0.09     1.30    0.01    0.18    0.00
   99    9.01    0.32    0.45    1.81    6.41    0.00  185.25    0.84    0.90    2.88    0.00    0.01    0.03    0.74    0.23     0.04    0.00    0.01    0.00
  100    4.68    0.01    0.38    1.84    4.09    0.00  184.92    0.62    0.66    2.30    0.00    0.00    0.03    0.53    0.03     0.00    0.00    0.00    0.00
  101    0.12    0.00    0.27    1.86    0.56    0.00  182.60    1.97    2.73    2.19    0.00    0.00    0.02    0.04    0.23     0.00    0.00    0.00    0.00
  102    0.00    0.00    0.19    1.88    0.22    0.00  179.97    2.55    4.76    2.14    0.00    0.00    0.01    0.01    0.22     0.00    0.00    0.00    0.00
  103    0.00    0.00    0.14    1.89    0.10    0.00  177.82    2.19    4.81    2.10    0.00    0.00    0.01    0.01    0.55     0.00    0.00    0.00    0.00
  104    0.00    0.00    0.10    1.90    0.05    0.00  175.68    2.24    5.54    2.07    0.00    0.00    0.01    0.00    0.64     0.00    0.00    0.00    0.00
  105    0.00    0.00    0.07    1.91    0.03    0.00  174.01    1.78    5.22    2.05    0.00    0.00    0.00    0.00    0.67     0.00    0.00    0.00    0.00
  106    0.00    0.00    0.05    1.91    0.01    0.00  172.63    1.50    4.54    2.03    0.00    0.00    0.00    0.00    0.68     0.00    0.00    0.00    0.00
  107    0.32    0.00    0.04    1.91    0.01    0.00  171.34    1.71    4.87    2.02    0.00    0.00    0.00    0.00    0.65     0.00    0.00    0.00    0.00
  108    0.00    0.00    0.03    1.91    0.00    0.00  170.04    1.42    4.36    2.01    0.00    0.00    0.00    0.00    0.70     0.00    0.00    0.00    0.00
  109    0.00    0.00    0.02    1.90    0.00    0.00  169.24    0.90    3.30    1.99    0.00    0.00    0.00    0.00    0.75     0.00    0.00    0.00    0.00
  110    0.00    0.00    0.02    1.90    0.00    0.00  168.07    1.30    4.59    1.98    0.00    0.00    0.00    0.00    0.76     0.00    0.00    0.00    0.00
  111    0.00    0.00    0.01    1.89    0.00    0.00  167.54    0.59    2.15    1.97    0.00    0.00    0.00    0.00    0.76     0.00    0.00    0.00    0.00
  112    0.00    0.00    0.01    1.88    0.00    0.00  166.16    1.54    5.62    1.95    0.00    0.00    0.00    0.00    0.91     0.00    0.00    0.00    0.00
  113    0.00    0.00    0.01    1.86    0.00    0.00  164.71    1.59    5.38    1.94    0.00    0.00    0.00    0.00    1.53     0.00    0.00    0.00    0.00
  114    0.00    0.00    0.01    1.85    0.00    0.00  163.59    1.23    4.33    1.92    0.00    0.00    0.00    0.00    1.49     0.00    0.00    0.00    0.00
  115   36.10    9.15    0.21    1.84    4.61    0.00  183.52    0.85    0.91   11.14    0.36    0.13    0.01    0.22    0.54     0.37    0.00    0.05    0.00
  116    0.69    0.00    0.15    1.82    0.33    0.00  180.50    3.51    4.85    2.16    0.00    0.00    0.00    0.01    1.26     0.01    0.00    0.00    0.00
  117    0.00    0.00    0.11    1.81    0.11    0.00  177.95    2.57    4.68    1.99    0.00    0.00    0.00    0.00    1.97     0.00    0.00    0.00    0.00
  118    0.00    0.00    0.08    1.79    0.04    0.00  175.42    2.65    5.61    1.94    0.00    0.00    0.00    0.00    2.06     0.00    0.00    0.00    0.00
  119    0.00    0.00    0.06    1.78    0.02    0.00  173.28    2.26    4.90    1.90    0.00    0.00    0.00    0.00    2.43     0.00    0.00    0.00    0.00
  120    8.06    0.12    0.07    1.76    0.01    0.00  177.07    4.00    5.91    2.02    0.00    0.00    0.00    0.00    2.28     0.00    0.00    0.00    0.00
    4  130.70   33.30    3.20   55.20   41.25    0.00  177.07   51.92  118.87   93.64    1.76    0.31    0.18    4.72   23.18     1.84    0.02    0.26    0.00
  121    0.07    0.00    0.05    1.74    0.01    0.00  174.55    2.73    5.01    1.86    0.00    0.00    0.00    0.00    2.58     0.00    0.00    0.00    0.00
  122   14.87    1.27    0.14    1.72    2.85    0.00  180.31    4.43    5.66    3.19    0.05    0.00    0.00    0.15    2.58     0.05    0.00    0.01    0.00
  123    1.43    0.00    0.10    1.71    0.21    0.00  179.63    1.93    2.41    1.90    0.00    0.00    0.00    0.00    2.73     0.00    0.00    0.00    0.00
  124    0.00    0.00    0.07    1.69    0.07    0.00  176.63    3.09    5.06    1.83    0.00    0.00    0.00    0.00    1.69     0.00    0.00    0.00    0.00
  125    0.00    0.00    0.05    1.67    0.02    0.00  174.21    2.54    5.10    1.79    0.00    0.00    0.00    0.00    2.83     0.00    0.00    0.00    0.00
  126    0.00    0.00    0.04    1.65    0.01    0.00  171.91    2.42    5.10    1.76    0.00    0.00    0.00    0.00    2.28     0.00    0.00    0.00    0.00
  127    0.00    0.00    0.03    1.63    0.01    0.00  169.62    2.41    5.06    1.72    0.00    0.00    0.00    0.00    1.91     0.00    0.00    0.00    0.00
  128    0.00    0.00    0.02    1.61    0.00    0.00  167.36    2.41    5.09    1.69    0.00    0.00    0.00    0.00    1.69     0.00    0.00    0.00    0.00
  129    0.00    0.00    0.02    1.58    0.00    0.00  164.75    2.77    5.89    1.67    0.00    0.00    0.00    0.00    1.68     0.00    0.00    0.00    0.00
  130    0.00    0.00    0.01    1.56    0.00    0.00  162.16    2.75    5.94    1.64    0.00    0.00    0.00    0.00    0.35     0.00    0.00    0.00    0.00
  131    6.71    0.11    0.03    1.54    0.00    0.00  164.99    3.66    5.95    1.75    0.00    0.00    0.00    0.00    0.29     0.00    0.00    0.00    0.00
  132    0.07    0.00    0.02    1.51    0.00    0.00  161.96    3.25    6.12    1.60    0.00    0.00    0.00    0.00    0.35     0.00    0.00    0.00    0.00
  133    0.00    0.00    0.02    1.49    0.00    0.00  159.18    2.94    5.57    1.57    0.00    0.00    0.00    0.00    0.25     0.00    0.00    0.00    0.00
  134    0.00    0.00    0.01    1.46    0.00    0.00  157.09    2.20    4.03    1.54    0.00    0.00    0.00    0.00    0.17     0.00    0.00    0.00    0.00
  135    0.00    0.00    0.01    1.44    0.00    0.00  155.30    1.89    3.78    1.51    0.00    0.00    0.00    0.00    0.09     0.00    0.00    0.00    0.00
  136    0.00    0.00    0.01    1.41    0.00    0.00  153.32    2.10    4.19    1.48    0.00    0.00    0.00    0.00    0.09     0.00    0.00    0.00    0.00
  137    0.00    0.00    0.01    1.39    0.00    0.00  150.68    2.80    5.80    1.46    0.00    0.00    0.00    0.00    0.09     0.00    0.00    0.00    0.00
  138   10.98    0.41    0.04    1.36    0.00    0.00  157.96    3.06    4.41    1.88    0.02    0.02    0.00    0.00    0.12     0.02    0.00    0.00    0.00
  139    1.21    0.00    0.03    1.33    0.00    0.00  157.22    1.99    2.93    1.44    0.00    0.00    0.00    0.00    0.20     0.00    0.00    0.00    0.00
  140    0.11    0.00    0.02    1.31    0.00    0.00  155.77    1.65    2.88    1.40    0.00    0.00    0.00    0.00    0.08     0.00    0.00    0.00    0.00
  141    0.00    0.00    0.02    1.28    0.00    0.00  153.64    2.25    4.15    1.37    0.00    0.00    0.00    0.00    0.06     0.00    0.00    0.00    0.00
  142   48.13   14.17    0.31    1.27    6.56    0.00  178.23    0.63    0.65   15.64    0.51    0.07    0.01    0.27    0.07     0.46    0.00    0.06    0.00
  143    0.07    0.00    0.22    1.25    0.49    0.00  175.70    2.19    2.60    1.70    0.00    0.00    0.01    0.01    0.41     0.01    0.00    0.00    0.00
  144    0.00    0.00    0.16    1.23    0.17    0.00  172.05    3.62    5.04    1.46    0.00    0.00    0.00    0.00    0.08     0.00    0.00    0.00    0.00
  145    0.00    0.00    0.11    1.22    0.07    0.00  168.86    3.27    5.07    1.39    0.00    0.00    0.00    0.00    0.10     0.00    0.00    0.00    0.00
  146    0.55    0.00    0.08    1.20    0.03    0.00  166.46    3.04    4.46    1.34    0.00    0.00    0.00    0.00    0.12     0.00    0.00    0.00    0.00
  147    0.12    0.00    0.06    1.18    0.02    0.00  164.26    2.40    3.89    1.30    0.00    0.00    0.00    0.00    0.11     0.00    0.00    0.00    0.00
  148    0.00    0.00    0.04    1.16    0.01    0.00  160.98    3.43    6.03    1.27    0.00    0.00    0.00    0.00    0.10     0.00    0.00    0.00    0.00
  149    0.00    0.00    0.03    1.14    0.00    0.00  157.57    3.57    6.46    1.24    0.00    0.00    0.00    0.00    0.14     0.00    0.00    0.00    0.00
  150    0.00    0.00    0.02    1.12    0.00    0.00  154.49    3.23    5.86    1.21    0.00    0.00    0.00    0.00    0.14     0.00    0.00    0.00    0.00
  151    0.00    0.00    0.02    1.11    0.00    0.00  151.04    3.61    7.10    1.19    0.00    0.00    0.00    0.00    0.09     0.00    0.00    0.00    0.00
    5   84.32   15.96    1.81   43.95   10.53    0.00  151.04   84.26  147.28   63.78    0.58    0.10    0.04    0.43   23.46     0.54    0.01    0.07    0.00
  152    0.00    0.00    0.01    1.09    0.00    0.00  147.92    3.29    6.11    1.16    0.00    0.00    0.00    0.00    0.11     0.00    0.00    0.00    0.00
  153    0.00    0.00    0.01    1.07    0.00    0.00  144.65    3.43    6.00    1.14    0.00    0.00    0.00    0.00    0.12     0.00    0.00    0.00    0.00
  154    5.22    0.03    0.02    1.05    0.00    0.00  148.70    0.97    1.26    1.16    0.00    0.00    0.00    0.00    0.11     0.00    0.00    0.00    0.00
  155    0.27    0.00    0.02    1.02    0.00    0.00  146.36    2.72    4.41    1.10    0.00    0.00    0.00    0.00    0.10     0.00    0.00    0.00    0.00
  156    0.00    0.00    0.01    1.00    0.00    0.00  143.17    3.36    5.71    1.07    0.00    0.00    0.00    0.00    0.11     0.00    0.00    0.00    0.00
  157   13.58    0.45    0.06    0.98    0.00    0.00  154.11    1.75    2.01    1.55    0.01    0.01    0.00    0.00    0.16     0.01    0.00    0.00    0.00
  158   24.82    3.18    0.23    0.96    1.86    0.00  170.42    2.30    2.56    4.40    0.09    0.01    0.01    0.08    0.17     0.09    0.00    0.01    0.00
  159    1.05    0.00    0.16    0.94    0.09    0.00  167.93    3.54    4.26    1.20    0.00    0.00    0.00    0.00    0.29     0.00    0.00    0.00    0.00
  160    0.00    0.00    0.12    0.91    0.02    0.00  163.84    4.23    6.01    1.09    0.00    0.00    0.00    0.00    0.16     0.00    0.00    0.00    0.00
  161    0.00    0.00    0.08    0.89    0.01    0.00  160.23    3.76    5.45    1.04    0.00    0.00    0.00    0.00    0.23     0.00    0.00    0.00    0.00
  162    3.47    0.00    0.07    0.87    0.00    0.00  159.51    4.21    5.58    1.00    0.00    0.00    0.00    0.00    0.23     0.00    0.00    0.00    0.00
  163   11.44    0.63    0.11    0.83    0.47    0.00  165.15    4.42    5.25    1.62    0.02    0.00    0.00    0.01    0.29     0.02    0.00    0.00    0.00
  164    6.20    0.06    0.11    0.76    0.54    0.00  167.27    3.29    3.83    1.00    0.00    0.00    0.00    0.00    0.36     0.00    0.00    0.00    0.00
  165    1.72    0.00    0.08    0.73    0.04    0.00  165.61    3.40    4.07    0.87    0.00    0.00    0.00    0.00    0.28     0.00    0.00    0.00    0.00
  166    0.23    0.00    0.06    0.70    0.01    0.00  161.52    4.47    5.78    0.82    0.00    0.00    0.00    0.00    0.26     0.00    0.00    0.00    0.00
  167   15.91    1.12    0.15    0.68    2.10    0.00  169.08    4.52    4.89    2.00    0.03    0.00    0.00    0.07    0.38     0.03    0.00    0.00    0.00
  168    6.92    0.05    0.15    0.67    1.27    0.00  170.62    3.84    4.29    0.94    0.00    0.00    0.00    0.03    0.45     0.00    0.00    0.00    0.00
  169    1.77    0.00    0.11    0.66    0.14    0.00  170.34    1.92    2.09    0.83    0.00    0.00    0.00    0.00    0.39     0.00    0.00    0.00    0.00
  170    7.03    0.14    0.14    0.65    1.57    0.00  171.84    3.53    3.88    0.99    0.00    0.00    0.00    0.02    0.16     0.00    0.00    0.00    0.00
  171   24.76    4.86    0.33    0.66    8.89    0.00  179.02    2.45    2.60    5.85    0.09    0.01    0.00    0.41    0.36     0.10    0.00    0.01    0.00
  172    0.11    0.00    0.24    0.66    0.77    0.00  173.40    5.13    6.33    1.02    0.00    0.00    0.00    0.02    0.40     0.00    0.00    0.00    0.00
  173    0.00    0.00    0.17    0.66    0.24    0.00  168.86    4.47    6.16    0.89    0.00    0.00    0.00    0.00    0.51     0.00    0.00    0.00    0.00
  174    0.00    0.00    0.12    0.66    0.09    0.00  164.85    4.09    5.93    0.84    0.00    0.00    0.00    0.00    0.49     0.00    0.00    0.00    0.00
  175    0.00    0.00    0.09    0.66    0.04    0.00  161.02    3.96    5.85    0.81    0.00    0.00    0.00    0.00    0.47     0.00    0.00    0.00    0.00
  176    0.00    0.00    0.06    0.66    0.02    0.00  157.28    3.89    5.89    0.78    0.00    0.00    0.00    0.00    0.45     0.00    0.00    0.00    0.00
  177    0.00    0.00    0.05    0.66    0.01    0.00  153.36    4.07    6.26    0.76    0.00    0.00    0.00    0.00    0.46     0.00    0.00    0.00    0.00
  178    0.00    0.00    0.03    0.66    0.01    0.00  149.67    3.85    6.03    0.75    0.00    0.00    0.00    0.00    0.46     0.00    0.00    0.00    0.00
  179    0.00    0.00    0.03    0.66    0.00    0.00  147.55    2.22    3.57    0.74    0.00    0.00    0.00    0.00    0.48     0.00    0.00    0.00    0.00
  180    2.76    0.00    0.03    0.66    0.00    0.00  148.36    1.94    2.86    0.75    0.00    0.00    0.00    0.00    0.26     0.00    0.00    0.00    0.00
  181   10.00    0.16    0.06    0.66    0.00    0.00  155.06    2.86    3.81    0.93    0.00    0.00    0.00    0.00    0.23     0.00    0.00    0.00    0.00
    6  137.26   10.68    2.92   23.73   18.20    0.00  155.06  101.89  138.74   39.10    0.24    0.04    0.05    0.66    8.92     0.26    0.00    0.03    0.00
  182    3.70    0.00    0.05    0.66    0.00    0.00  157.44    1.23    1.57    0.77    0.00    0.00    0.00    0.00    0.38     0.00    0.00    0.00    0.00
  183   16.27    1.05    0.13    0.65    0.00    0.00  169.61    2.45    3.14    1.88    0.01    0.00    0.00    0.00    0.14     0.01    0.00    0.00    0.00
  184    0.20    0.00    0.09    0.65    0.00    0.00  167.20    2.74    4.46    0.81    0.00    0.00    0.00    0.00    0.34     0.00    0.00    0.00    0.00
  185    0.12    0.00    0.07    0.65    0.00    0.00  165.41    2.01    3.72    0.77    0.00    0.00    0.00    0.00    0.37     0.00    0.00    0.00    0.00
  186    5.31    0.08    0.08    0.64    0.04    0.00  166.52    3.98    5.78    0.85    0.00    0.00    0.00    0.00    0.30     0.00    0.00    0.00    0.00
  187    4.62    0.01    0.08    0.63    0.00    0.00  168.18    2.89    3.74    0.78    0.00    0.00    0.00    0.00    0.49     0.00    0.00    0.00    0.00
  188    1.10    0.00    0.06    0.62    0.00    0.00  166.54    2.81    3.79    0.73    0.00    0.00    0.00    0.00    0.31     0.00    0.00    0.00    0.00
  189    0.00    0.00    0.04    0.59    0.00    0.00  162.72    3.99    6.03    0.69    0.00    0.00    0.00    0.00    0.29     0.00    0.00    0.00    0.00
  190    0.00    0.00    0.03    0.58    0.00    0.00  159.48    3.40    5.47    0.66    0.00    0.00    0.00    0.00    0.48     0.00    0.00    0.00    0.00
  191    0.00    0.00    0.02    0.53    0.00    0.00  156.30    3.34    5.63    0.61    0.00    0.00    0.00    0.00    0.43     0.00    0.00    0.00    0.00
  192   11.41    0.39    0.06    0.53    0.00    0.00  163.22    3.80    4.81    1.03    0.00    0.00    0.00    0.00    0.45     0.01    0.00    0.00    0.00
  193    4.08    0.12    0.08    0.51    0.30    0.00  163.19    3.58    5.16    0.77    0.00    0.00    0.00    0.00    0.45     0.00    0.00    0.00    0.00
  194    0.00    0.00    0.06    0.51    0.01    0.00  161.14    2.15    3.59    0.62    0.00    0.00    0.00    0.00    0.44     0.00    0.00    0.00    0.00
  195    0.00    0.00    0.04    0.50    0.00    0.00  159.41    1.82    3.07    0.59    0.00    0.00    0.00    0.00    0.30     0.00    0.00    0.00    0.00
  196    0.94    0.00    0.03    0.49    0.00    0.00  157.14    3.33    4.94    0.57    0.00    0.00    0.00    0.00    0.26     0.00    0.00    0.00    0.00
  197    0.00    0.00    0.02    0.46    0.00    0.00  154.03    3.27    5.43    0.54    0.00    0.00    0.00    0.00    0.41     0.00    0.00    0.00    0.00
  198   17.66    2.73    0.11    0.46    0.63    0.00  165.23    2.58    3.27    3.32    0.03    0.01    0.00    0.00    0.44     0.03    0.00    0.00    0.00
  199    0.00    0.00    0.08    0.45    0.04    0.00  161.91    3.44    5.24    0.60    0.00    0.00    0.00    0.00    0.38     0.00    0.00    0.00    0.00
  200    0.12    0.00    0.06    0.43    0.01    0.00  159.81    2.33    4.09    0.54    0.00    0.00    0.00    0.00    0.44     0.00    0.00    0.00    0.00
  201    0.00    0.00    0.04    0.39    0.01    0.00  156.75    3.21    5.49    0.48    0.00    0.00    0.00    0.00    0.34     0.00    0.00    0.00    0.00
  202    0.00    0.00    0.03    0.38    0.00    0.00  154.58    2.31    4.65    0.46    0.00    0.00    0.00    0.00    0.46     0.00    0.00    0.00    0.00
  203   30.22    5.65    0.20    0.38    3.04    0.00  173.21    1.61    2.02    6.19    0.07    0.01    0.00    0.00    0.39     0.09    0.00    0.01    0.00
  204   19.41    2.42    0.35    0.39    7.29    0.00  180.20    1.58    1.98    3.25    0.00    0.01    0.00    0.01    0.35     0.03    0.00    0.00    0.00
  205    0.00    0.00    0.25    0.40    0.61    0.00  177.41    2.28    3.31    0.73    0.00    0.00    0.00    0.00    0.30     0.00    0.00    0.00    0.00
  206    0.00    0.00    0.18    0.41    0.22    0.00  174.61    2.72    4.32    0.63    0.00    0.00    0.00    0.00    0.24     0.00    0.00    0.00    0.00
  207    0.00    0.00    0.13    0.41    0.09    0.00  171.38    3.29    5.16    0.58    0.00    0.00    0.00    0.00    0.12     0.00    0.00    0.00    0.00
  208    0.49    0.00    0.09    0.41    0.04    0.00  169.01    2.94    4.85    0.55    0.00    0.00    0.00    0.00    0.14     0.00    0.00    0.00    0.00
  209    0.78    0.00    0.07    0.42    0.02    0.00  166.86    3.04    4.96    0.53    0.00    0.00    0.00    0.00    0.12     0.00    0.00    0.00    0.00
  210    0.00    0.00    0.05    0.42    0.01    0.00  164.54    2.45    5.06    0.52    0.00    0.00    0.00    0.00    0.10     0.00    0.00    0.00    0.00
  211   22.38    3.18    0.16    0.42    2.18    0.00  177.21    3.53    4.55    3.78    0.02    0.01    0.00    0.00    0.09     0.03    0.00    0.00    0.00
  212    2.22    0.00    0.13    0.43    0.66    0.00  175.79    2.99    4.58    0.65    0.00    0.00    0.00    0.00    0.23     0.00    0.00    0.00    0.00
    7  141.01   15.63    2.89   15.36   15.19    0.00  175.79   87.10  133.84   35.48    0.14    0.04    0.00    0.02   10.01     0.21    0.00    0.03    0.00
  213   19.17    2.55    0.28    0.45    7.48    0.00  181.90    2.00    2.43    3.29    0.03    0.01    0.00    0.02    0.09     0.04    0.00    0.01    0.00
  214    0.19    0.00    0.20    0.46    0.55    0.00  178.33    3.36    5.10    0.74    0.00    0.00    0.00    0.00    0.18     0.00    0.00    0.00    0.00
  215   16.61    1.95    0.30    0.49    7.59    0.00  180.85    3.71    4.86    2.76    0.03    0.00    0.00    0.02    0.07     0.03    0.00    0.00    0.00
  216   10.17    0.46    0.32    0.52    5.33    0.00  182.39    2.33    3.01    1.37    0.00    0.00    0.00    0.01    0.17     0.01    0.00    0.00    0.00
  217    1.49    0.00    0.23    0.55    0.68    0.00  181.52    1.70    2.31    0.83    0.00    0.00    0.00    0.00    0.12     0.00    0.00    0.00    0.00
  218    1.93    0.00    0.18    0.57    0.45    0.00  180.41    2.62    3.51    0.80    0.00    0.00    0.00    0.00    0.06     0.00    0.00    0.00    0.00
  219   10.27    0.57    0.23    0.60    4.91    0.00  183.60    1.06    1.34    1.44    0.01    0.00    0.00    0.01    0.07     0.01    0.00    0.00    0.00
  220    0.00    0.00    0.17    0.63    0.40    0.00  180.52    2.79    3.92    0.85    0.00    0.00    0.00    0.00    0.11     0.00    0.00    0.00    0.00
  221    0.00    0.00    0.12    0.65    0.13    0.00  177.46    3.08    4.93    0.82    0.00    0.00    0.00    0.00    0.06     0.00    0.00    0.00    0.00
  222    0.00    0.00    0.09    0.67    0.05    0.00  175.29    2.24    4.05    0.81    0.00    0.00    0.00    0.00    0.06     0.00    0.00    0.00    0.00
  223    0.50    0.00    0.06    0.69    0.03    0.00  173.42    2.44    4.08    0.80    0.00    0.00    0.00    0.00    0.06     0.00    0.00    0.00    0.00
  224   11.83    0.95    0.12    0.71    2.24    0.00  180.02    1.53    1.97    1.81    0.01    0.00    0.00    0.02    0.06     0.01    0.00    0.00    0.00
  225    0.00    0.00    0.09    0.73    0.09    0.00  177.04    3.02    4.82    0.88    0.00    0.00    0.00    0.00    0.12     0.00    0.00    0.00    0.00
  226    0.79    0.00    0.06    0.74    0.02    0.00  175.17    2.75    4.40    0.86    0.00    0.00    0.00    0.00    0.06     0.00    0.00    0.00    0.00
  227    0.00    0.00    0.05    0.75    0.01    0.00  172.69    2.61    4.85    0.85    0.00    0.00    0.00    0.00    0.06     0.00    0.00    0.00    0.00
  228    3.80    0.03    0.05    0.76    0.26    0.00  173.00    3.17    4.64    0.90    0.00    0.00    0.00    0.00    0.05     0.00    0.00    0.00    0.00
  229    0.27    0.00    0.04    0.77    0.01    0.00  171.38    1.98    3.46    0.86    0.00    0.00    0.00    0.00    0.07     0.00    0.00    0.00    0.00
  230    1.19    0.00    0.03    0.78    0.00    0.00  169.82    2.84    4.74    0.86    0.00    0.00    0.00    0.00    0.03     0.00    0.00    0.00    0.00
  231   19.44    4.40    0.13    0.79    2.52    0.00  179.32    2.41    2.84    5.33    0.05    0.01    0.00    0.01    0.04     0.06    0.00    0.01    0.00
  232    0.00    0.00    0.09    0.80    0.28    0.00  176.28    2.90    4.54    0.98    0.00    0.00    0.00    0.00    0.19     0.00    0.00    0.00    0.00
  233    0.24    0.00    0.07    0.80    0.11    0.00  174.23    2.29    4.09    0.92    0.00    0.00    0.00    0.00    0.03     0.00    0.00    0.00    0.00
  234    0.47    0.00    0.05    0.81    0.05    0.00  172.92    1.81    2.95    0.91    0.00    0.00    0.00    0.00    0.03     0.00    0.00    0.00    0.00
  235    0.00    0.00    0.04    0.81    0.02    0.00  170.71    2.30    3.98    0.89    0.00    0.00    0.00    0.00    0.03     0.00    0.00    0.00    0.00
  236    0.00    0.00    0.03    0.81    0.01    0.00  168.05    2.79    4.85    0.88    0.00    0.00    0.00    0.00    0.03     0.00    0.00    0.00    0.00
  237    1.72    0.00    0.03    0.81    0.01    0.00  167.56    2.24    3.95    0.88    0.00    0.00    0.00    0.00    0.03     0.00    0.00    0.00    0.00
  238    0.12    0.00    0.02    0.81    0.00    0.00  165.28    2.52    4.46    0.87    0.00    0.00    0.00    0.00    0.04     0.00    0.00    0.00    0.00
  239   23.39    3.80    0.15    0.81    2.97    0.00  177.97    3.07    3.92    4.76    0.05    0.01    0.00    0.02    0.03     0.06    0.00    0.01    0.00
  240    1.25    0.00    0.11    0.80    0.19    0.00  175.83    3.29    4.51    1.00    0.00    0.00    0.00    0.00    0.16     0.00    0.00    0.00    0.00
  241    2.21    0.00    0.09    0.80    0.12    0.00  175.34    2.59    3.72    0.94    0.00    0.00    0.00    0.00    0.03     0.00    0.00    0.00    0.00
  242    0.12    0.00    0.06    0.80    0.03    0.00  173.22    2.33    4.35    0.91    0.00    0.00    0.00    0.00    0.04     0.00    0.00    0.00    0.00
  243    0.00    0.00    0.04    0.80    0.02    0.00  171.06    2.28    4.85    0.89    0.00    0.00    0.00    0.00    0.03     0.00    0.00    0.00    0.00
    8  127.18   14.72    3.51   21.97   36.54    0.00  171.06   78.06  121.41   41.71    0.18    0.03    0.01    0.12    2.21     0.22    0.00    0.03    0.00
  244   13.61    1.11    0.12    0.80    1.95    0.00  178.29    2.79    4.02    2.05    0.02    0.01    0.00    0.03    0.03     0.03    0.00    0.01    0.00
  245    0.12    0.00    0.08    0.79    0.05    0.00  176.23    2.23    3.56    0.94    0.00    0.00    0.00    0.00    0.10     0.00    0.00    0.00    0.00
  246    2.25    0.00    0.07    0.79    0.21    0.00  175.26    3.04    4.25    0.91    0.00    0.00    0.00    0.00    0.02     0.00    0.00    0.00    0.00
  247    0.50    0.00    0.05    0.78    0.01    0.00  173.55    2.29    3.68    0.88    0.00    0.00    0.00    0.00    0.03     0.00    0.00    0.00    0.00
  248   10.75    0.45    0.11    0.77    1.71    0.00  179.65    2.04    2.49    1.37    0.00    0.01    0.00    0.02    0.02     0.01    0.00    0.00    0.00
  249    0.70    0.00    0.08    0.77    0.05    0.00  179.69    0.62    0.84    0.90    0.00    0.00    0.00    0.00    0.07     0.00    0.00    0.00    0.00
  250    0.00    0.00    0.06    0.76    0.01    0.00  178.96    0.76    1.28    0.87    0.00    0.00    0.00    0.00    0.02     0.00    0.00    0.00    0.00
  251    0.00    0.00    0.04    0.75    0.01    0.00  177.01    2.04    3.40    0.84    0.00    0.00    0.00    0.00    0.02     0.00    0.00    0.00    0.00
  252    0.00    0.00    0.03    0.74    0.00    0.00  174.94    2.19    4.04    0.82    0.00    0.00    0.00    0.00    0.02     0.00    0.00    0.00    0.00
  253    0.00    0.00    0.02    0.73    0.00    0.00  173.05    2.01    4.17    0.80    0.00    0.00    0.00    0.00    0.02     0.00    0.00    0.00    0.00
  254    0.00    0.00    0.02    0.72    0.00    0.00  171.08    2.10    4.66    0.79    0.00    0.00    0.00    0.00    0.02     0.00    0.00    0.00    0.00
  255    0.00    0.00    0.01    0.72    0.00    0.00  169.25    1.95    4.12    0.77    0.00    0.00    0.00    0.00    0.02     0.00    0.00    0.00    0.00
  256    0.00    0.00    0.01    0.71    0.00    0.00  167.53    1.83    4.02    0.76    0.00    0.00    0.00    0.00    0.02     0.00    0.00    0.00    0.00
  257    0.00    0.00    0.01    0.70    0.00    0.00  166.58    1.03    2.56    0.75    0.00    0.00    0.00    0.00    0.02     0.00    0.00    0.00    0.00
  258    0.00    0.00    0.01    0.69    0.00    0.00  164.96    1.73    3.79    0.74    0.00    0.00    0.00    0.00    0.02     0.00    0.00    0.00    0.00
  259    0.00    0.00    0.00    0.68    0.00    0.00  163.17    1.93    4.75    0.73    0.00    0.00    0.00    0.00    0.02     0.00    0.00    0.00    0.00
  260    0.00    0.00    0.00    0.65    0.00    0.00  161.24    2.06    5.21    0.70    0.00    0.00    0.00    0.00    0.02     0.00    0.00    0.00    0.00
  261    0.00    0.00    0.00    0.60    0.00    0.00  159.36    2.02    4.95    0.65    0.00    0.00    0.00    0.00    0.02     0.00    0.00    0.00    0.00
  262    0.00    0.00    0.00    0.59    0.00    0.00  157.64    1.83    4.13    0.64    0.00    0.00    0.00    0.00    0.02     0.00    0.00    0.00    0.00
  263    0.00    0.00    0.00    0.58    0.00    0.00  156.00    1.75    4.13    0.63    0.00    0.00    0.00    0.00    0.02     0.00    0.00    0.00    0.00
  264    0.57    0.00    0.00    0.57    0.00    0.00  155.21    1.44    3.26    0.62    0.00    0.00    0.00    0.00    0.01     0.00    0.00    0.00    0.00
  265   15.02    1.00    0.06    0.57    0.22    0.00  166.97    1.51    2.00    1.66    0.01    0.03    0.00    0.00    0.02     0.02    0.00    0.00    0.00
  266    2.97    0.00    0.06    0.55    0.34    0.00  166.63    2.96    4.19    0.68    0.00    0.00    0.00    0.01    0.08     0.00    0.00    0.00    0.00
  267    0.00    0.00    0.04    0.54    0.00    0.00  164.76    1.97    3.67    0.63    0.00    0.00    0.00    0.00    0.03     0.00    0.00    0.00    0.00
  268    0.00    0.00    0.03    0.53    0.00    0.00  163.47    1.36    2.70    0.60    0.00    0.00    0.00    0.00    0.01     0.00    0.00    0.00    0.00
  269    0.29    0.00    0.02    0.50    0.00    0.00  161.76    2.11    4.25    0.57    0.00    0.00    0.00    0.00    0.01     0.00    0.00    0.00    0.00
  270    0.00    0.00    0.02    0.49    0.00    0.00  160.03    1.85    3.92    0.55    0.00    0.00    0.00    0.00    0.01     0.00    0.00    0.00    0.00
  271    0.00    0.00    0.01    0.47    0.00    0.00  158.02    2.13    4.82    0.53    0.00    0.00    0.00    0.00    0.01     0.00    0.00    0.00    0.00
  272    0.00    0.00    0.01    0.46    0.00    0.00  155.94    2.19    5.12    0.51    0.00    0.00    0.00    0.00    0.01     0.00    0.00    0.00    0.00
  273    0.00    0.00    0.01    0.45    0.00    0.00  154.22    1.84    4.68    0.50    0.00    0.00    0.00    0.00    0.01     0.00    0.00    0.00    0.00
    9   46.78    2.56    1.00   19.46    4.58    0.00  154.22   57.59  112.66   24.42    0.03    0.04    0.01    0.06    0.74     0.06    0.00    0.01    0.00
  274    0.00    0.00    0.00    0.44    0.00    0.00  152.72    1.61    3.91    0.49    0.00    0.00    0.00    0.00    0.01     0.00    0.00    0.00    0.00
  275    0.00    0.00    0.00    0.42    0.00    0.00  151.27    1.57    4.03    0.47    0.00    0.00    0.00    0.00    0.01     0.00    0.00    0.00    0.00
  276    0.00    0.00    0.00    0.41    0.00    0.00  149.93    1.45    3.85    0.45    0.00    0.00    0.00    0.00    0.01     0.00    0.00    0.00    0.00
  277    0.00    0.00    0.00    0.40    0.00    0.00  148.60    1.44    3.39    0.44    0.00    0.00    0.00    0.00    0.01     0.00    0.00    0.00    0.00
  278    0.00    0.00    0.00    0.35    0.00    0.00  147.12    1.60    3.46    0.39    0.00    0.00    0.00    0.00    0.01     0.00    0.00    0.00    0.00
  279    0.00    0.00    0.00    0.33    0.00    0.00  145.94    1.25    2.90    0.38    0.00    0.00    0.00    0.00    0.01     0.00    0.00    0.00    0.00
  280   42.59   10.66    0.23    0.33    2.25    0.00  172.60    1.26    1.57   11.10    0.15    0.10    0.00    0.06    0.01     0.22    0.01    0.04    0.00
  281    0.07    0.00    0.16    0.33    0.05    0.00  171.43    1.25    1.91    0.69    0.00    0.00    0.00    0.00    0.19     0.00    0.00    0.00    0.00
  282    0.00    0.00    0.12    0.32    0.01    0.00  170.33    1.16    2.19    0.48    0.00    0.00    0.00    0.00    0.02     0.00    0.00    0.00    0.00
  283    0.12    0.00    0.08    0.31    0.01    0.00  169.12    1.39    2.28    0.44    0.00    0.00    0.00    0.00    0.01     0.00    0.00    0.00    0.00
  284    0.94    0.00    0.06    0.31    0.00    0.00  169.63    0.42    0.67    0.42    0.00    0.00    0.00    0.00    0.01     0.00    0.00    0.00    0.00
  285    0.75    0.00    0.05    0.29    0.00    0.00  167.11    3.27    4.30    0.38    0.00    0.00    0.00    0.00    0.01     0.00    0.00    0.00    0.00
  286    0.00    0.00    0.03    0.28    0.00    0.00  166.32    0.85    1.99    0.36    0.00    0.00    0.00    0.00    0.01     0.00    0.00    0.00    0.00
  287    0.37    0.00    0.02    0.28    0.00    0.00  165.49    1.24    2.11    0.34    0.00    0.00    0.00    0.00    0.01     0.00    0.00    0.00    0.00
  288    0.00    0.00    0.02    0.26    0.00    0.00  163.53    2.07    4.22    0.31    0.00    0.00    0.00    0.00    0.01     0.00    0.00    0.00    0.00
  289    0.00    0.00    0.01    0.25    0.00    0.00  161.86    1.77    3.52    0.30    0.00    0.00    0.00    0.00    0.01     0.00    0.00    0.00    0.00
  290    0.00    0.00    0.01    0.25    0.00    0.00  160.53    1.42    3.18    0.30    0.00    0.00    0.00    0.00    0.01     0.00    0.00    0.00    0.00
  291    0.00    0.00    0.01    0.24    0.00    0.00  159.37    1.26    3.19    0.29    0.00    0.00    0.00    0.00    0.01     0.00    0.00    0.00    0.00
  292    0.00    0.00    0.01    0.24    0.00    0.00  158.31    1.16    2.82    0.29    0.00    0.00    0.00    0.00    0.01     0.00    0.00    0.00    0.00
  293    0.00    0.00    0.00    0.24    0.00    0.00  157.16    1.25    2.93    0.28    0.00    0.00    0.00    0.00    0.01     0.00    0.00    0.00    0.00
  294    0.00    0.00    0.00    0.22    0.00    0.00  155.82    1.44    3.83    0.26    0.00    0.00    0.00    0.00    0.01     0.00    0.00    0.00    0.00
  295    0.00    0.00    0.00    0.21    0.00    0.00  154.28    1.64    4.00    0.25    0.00    0.00    0.00    0.00    0.01     0.00    0.00    0.00    0.00
  296    0.00    0.00    0.00    0.21    0.00    0.00  152.76    1.61    3.87    0.25    0.00    0.00    0.00    0.00    0.01     0.00    0.00    0.00    0.00
  297    0.00    0.00    0.00    0.21    0.00    0.00  151.38    1.47    3.52    0.24    0.00    0.00    0.00    0.00    0.01     0.00    0.00    0.00    0.00
  298    0.00    0.00    0.00    0.20    0.00    0.00  150.52    0.94    2.77    0.24    0.00    0.00    0.00    0.00    0.01     0.00    0.00    0.00    0.00
  299   11.12    0.45    0.05    0.20    0.03    0.00  159.58    1.20    1.72    0.72    0.01    0.02    0.00    0.00    0.01     0.01    0.00    0.00    0.00
  300    1.97    0.00    0.04    0.20    0.17    0.00  159.63    1.68    2.13    0.29    0.00    0.00    0.00    0.00    0.03     0.00    0.00    0.00    0.00
  301   25.04    4.49    0.22    0.20    4.86    0.00  171.42    2.62    3.27    4.87    0.06    0.02    0.00    0.16    0.02     0.09    0.00    0.02    0.00
  302    0.11    0.00    0.15    0.21    0.17    0.00  170.01    1.43    2.46    0.47    0.00    0.00    0.00    0.00    0.12     0.00    0.00    0.00    0.00
  303    0.00    0.00    0.11    0.21    0.05    0.00  168.76    1.29    2.55    0.36    0.00    0.00    0.00    0.00    0.01     0.00    0.00    0.00    0.00
  304    0.00    0.00    0.08    0.21    0.02    0.00  167.87    0.94    2.07    0.33    0.00    0.00    0.00    0.00    0.01     0.00    0.00    0.00    0.00
   10   83.08   15.60    1.48    8.58    7.63    0.00  167.87   44.94   90.62   26.88    0.22    0.15    0.02    0.23    0.61     0.33    0.01    0.06    0.00
  305    0.00    0.00    0.06    0.21    0.01    0.00  166.65    1.29    2.92    0.30    0.00    0.00    0.00    0.00    0.01     0.00    0.00    0.00    0.00
  306    0.00    0.00    0.04    0.21    0.00    0.00  165.16    1.58    3.48    0.28    0.00    0.00    0.00    0.00    0.01     0.00    0.00    0.00    0.00
  307    0.00    0.00    0.03    0.21    0.00    0.00  164.42    0.81    2.20    0.27    0.00    0.00    0.00    0.00    0.01     0.00    0.00    0.00    0.00
  308    8.76    0.40    0.07    0.21    1.10    0.00  170.23    1.06    1.45    0.71    0.01    0.01    0.00    0.04    0.01     0.01    0.00    0.00    0.00
  309    0.19    0.00    0.05    0.22    0.05    0.00  169.27    1.16    2.00    0.31    0.00    0.00    0.00    0.00    0.04     0.00    0.00    0.00    0.00
  310    0.00    0.00    0.04    0.22    0.01    0.00  168.10    1.24    2.52    0.29    0.00    0.00    0.00    0.00    0.01     0.00    0.00    0.00    0.00
  311    0.00    0.00    0.03    0.22    0.01    0.00  167.06    1.12    2.42    0.28    0.00    0.00    0.00    0.00    0.01     0.00    0.00    0.00    0.00
  312    0.00    0.00    0.02    0.22    0.00    0.00  166.64    0.47    1.34    0.28    0.00    0.00    0.00    0.00    0.01     0.00    0.00    0.00    0.00
  313    0.00    0.00    0.01    0.22    0.00    0.00  166.12    0.55    1.46    0.27    0.00    0.00    0.00    0.00    0.01     0.00    0.00    0.00    0.00
  314    0.00    0.00    0.01    0.22    0.00    0.00  165.20    0.99    2.65    0.27    0.00    0.00    0.00    0.00    0.01     0.00    0.00    0.00    0.00
  315    0.00    0.00    0.01    0.22    0.00    0.00  164.46    0.81    2.11    0.26    0.00    0.00    0.00    0.00    0.01     0.00    0.00    0.00    0.00
  316    0.00    0.00    0.01    0.22    0.00    0.00  163.79    0.75    2.43    0.26    0.00    0.00    0.00    0.00    0.00     0.00    0.00    0.00    0.00
  317    0.00    0.00    0.00    0.21    0.00    0.00  162.93    0.93    3.86    0.24    0.00    0.00    0.00    0.00    0.00     0.00    0.00    0.00    0.00
  318    0.00    0.00    0.00    0.21    0.00    0.00  162.47    0.52    2.14    0.24    0.00    0.00    0.00    0.00    0.00     0.00    0.00    0.00    0.00
  319    0.00    0.00    0.00    0.21    0.00    0.00  162.08    0.46    2.05    0.24    0.00    0.00    0.00    0.00    0.00     0.00    0.00    0.00    0.00
  320    0.00    0.00    0.00    0.21    0.00    0.00  161.69    0.47    2.18    0.24    0.00    0.00    0.00    0.00    0.00     0.00    0.00    0.00    0.00
  321    0.00    0.00    0.00    0.21    0.00    0.00  161.31    0.45    2.11    0.24    0.00    0.00    0.00    0.00    0.00     0.00    0.00    0.00    0.00
  322    0.77    0.00    0.00    0.20    0.00    0.00  161.10    1.02    2.96    0.24    0.00    0.00    0.00    0.00    0.00     0.00    0.00    0.00    0.00
  323   15.39    1.19    0.09    0.21    1.24    0.00  172.34    1.10    1.67    1.49    0.02    0.05    0.00    0.04    0.00     0.03    0.00    0.01    0.00
  324    0.00    0.00    0.06    0.20    0.06    0.00  171.07    1.28    2.87    0.32    0.00    0.00    0.00    0.00    0.00     0.00    0.00    0.00    0.00
  325    0.00    0.00    0.04    0.20    0.02    0.00  170.36    0.77    1.90    0.28    0.00    0.00    0.00    0.00    0.00     0.00    0.00    0.00    0.00
  326    0.00    0.00    0.03    0.19    0.01    0.00  169.70    0.73    1.99    0.26    0.00    0.00    0.00    0.00    0.00     0.00    0.00    0.00    0.00
  327    0.00    0.00    0.02    0.19    0.00    0.00  169.13    0.63    1.92    0.24    0.00    0.00    0.00    0.00    0.00     0.00    0.00    0.00    0.00
  328    6.59    0.03    0.06    0.19    0.60    0.00  174.42    0.38    0.55    0.31    0.00    0.00    0.00    0.01    0.00     0.00    0.00    0.00    0.00
  329    0.00    0.00    0.04    0.19    0.05    0.00  173.35    1.08    1.89    0.26    0.00    0.00    0.00    0.00    0.00     0.00    0.00    0.00    0.00
  330    0.00    0.00    0.03    0.19    0.02    0.00  172.76    0.63    1.40    0.25    0.00    0.00    0.00    0.00    0.00     0.00    0.00    0.00    0.00
  331    0.00    0.00    0.02    0.19    0.01    0.00  172.07    0.75    1.89    0.24    0.00    0.00    0.00    0.00    0.00     0.00    0.00    0.00    0.00
  332    7.97    0.27    0.09    0.19    2.61    0.00  175.76    0.95    1.37    0.57    0.00    0.00    0.00    0.08    0.00     0.01    0.00    0.00    0.00
  333    0.00    0.00    0.06    0.19    0.15    0.00  174.55    1.12    2.42    0.29    0.00    0.00    0.00    0.00    0.00     0.00    0.00    0.00    0.00
  334    0.00    0.00    0.05    0.19    0.05    0.00  173.99    0.56    1.31    0.27    0.00    0.00    0.00    0.00    0.00     0.00    0.00    0.00    0.00
   11   39.67    1.89    0.97    6.17    5.99    0.00  173.99   25.67   63.47   10.02    0.03    0.06    0.02    0.18    0.12     0.05    0.00    0.01    0.00
  335    0.00    0.00    0.03    0.19    0.02    0.00  173.10    0.93    2.42    0.25    0.00    0.00    0.00    0.00    0.00     0.00    0.00    0.00    0.00
  336    0.00    0.00    0.02    0.19    0.01    0.00  171.96    1.19    3.42    0.24    0.00    0.00    0.00    0.00    0.00     0.00    0.00    0.00    0.00
  337    0.00    0.00    0.02    0.19    0.00    0.00  171.19    0.82    2.65    0.24    0.00    0.00    0.00    0.00    0.00     0.00    0.00    0.00    0.00
  338    3.14    0.00    0.02    0.19    0.00    0.00  174.07    0.16    0.24    0.24    0.00    0.00    0.00    0.00    0.00     0.00    0.00    0.00    0.00
  339    0.12    0.00    0.02    0.19    0.00    0.00  173.82    0.38    0.61    0.24    0.00    0.00    0.00    0.00    0.00     0.00    0.00    0.00    0.00
  340    0.00    0.00    0.01    0.19    0.00    0.00  173.36    0.50    1.00    0.23    0.00    0.00    0.00    0.00    0.00     0.00    0.00    0.00    0.00
  341    0.00    0.00    0.01    0.19    0.00    0.00  172.88    0.54    1.22    0.23    0.00    0.00    0.00    0.00    0.00     0.00    0.00    0.00    0.00
  342    0.00    0.00    0.01    0.19    0.00    0.00  172.43    0.50    1.24    0.23    0.00    0.00    0.00    0.00    0.00     0.00    0.00    0.00    0.00
  343    0.00    0.00    0.00    0.19    0.00    0.00  171.93    0.55    1.49    0.23    0.00    0.00    0.00    0.00    0.00     0.00    0.00    0.00    0.00
  344   14.76    1.37    0.14    0.20    4.63    0.00  178.80    1.07    1.54    1.72    0.02    0.02    0.00    0.13    0.00     0.02    0.00    0.00    0.00
  345    0.00    0.00    0.10    0.20    0.29    0.00  177.65    0.90    1.91    0.35    0.00    0.00    0.00    0.00    0.00     0.00    0.00    0.00    0.00
  346    0.00    0.00    0.07    0.21    0.09    0.00  176.92    0.69    1.59    0.31    0.00    0.00    0.00    0.00    0.00     0.00    0.00    0.00    0.00
  347    3.21    0.00    0.07    0.21    0.48    0.00  178.84    0.68    0.95    0.31    0.00    0.00    0.00    0.01    0.00     0.00    0.00    0.00    0.00
  348   14.18    1.35    0.22    0.23    8.14    0.00  182.25    0.36    0.49    1.81    0.02    0.01    0.00    0.26    0.00     0.03    0.00    0.00    0.00
  349    0.00    0.00    0.16    0.24    0.55    0.00  181.00    0.75    1.21    0.45    0.00    0.00    0.00    0.01    0.00     0.00    0.00    0.00    0.00
  350    0.00    0.00    0.11    0.26    0.18    0.00  180.27    0.58    1.14    0.40    0.00    0.00    0.00    0.00    0.00     0.00    0.00    0.00    0.00
  351    8.66    0.30    0.18    0.28    5.05    0.00  181.51    1.55    2.41    0.78    0.00    0.00    0.00    0.17    0.00     0.01    0.00    0.00    0.00
  352    0.00    0.00    0.13    0.29    0.39    0.00  179.85    1.32    2.98    0.45    0.00    0.00    0.00    0.01    0.00     0.00    0.00    0.00    0.00
  353    0.00    0.00    0.09    0.31    0.13    0.00  178.51    1.26    3.37    0.43    0.00    0.00    0.00    0.00    0.00     0.00    0.00    0.00    0.00
  354    0.00    0.00    0.07    0.32    0.06    0.00  177.76    0.74    2.20    0.42    0.00    0.00    0.00    0.00    0.00     0.00    0.00    0.00    0.00
  355    0.00    0.00    0.05    0.34    0.03    0.00  177.18    0.61    1.80    0.41    0.00    0.00    0.00    0.00    0.00     0.00    0.00    0.00    0.00
  356    0.00    0.00    0.04    0.35    0.01    0.00  176.74    0.48    1.47    0.41    0.00    0.00    0.00    0.00    0.00     0.00    0.00    0.00    0.00
  357    4.00    0.00    0.04    0.36    0.01    0.00  179.38    1.25    2.01    0.43    0.00    0.00    0.00    0.00    0.00     0.00    0.00    0.00    0.00
  358    0.99    0.00    0.03    0.37    0.01    0.00  180.05    0.30    0.43    0.43    0.00    0.00    0.00    0.00    0.00     0.00    0.00    0.00    0.00
  359    0.00    0.00    0.02    0.38    0.00    0.00  179.66    0.41    0.70    0.43    0.00    0.00    0.00    0.00    0.00     0.00    0.00    0.00    0.00
  360    0.00    0.00    0.02    0.38    0.00    0.00  178.85    0.86    1.69    0.43    0.00    0.00    0.00    0.00    0.00     0.00    0.00    0.00    0.00
  361    0.00    0.00    0.01    0.39    0.00    0.00  178.08    0.83    1.92    0.43    0.00    0.00    0.00    0.00    0.00     0.00    0.00    0.00    0.00
  362    0.00    0.00    0.01    0.39    0.00    0.00  177.33    0.81    2.16    0.43    0.00    0.00    0.00    0.00    0.00     0.00    0.00    0.00    0.00
  363    0.00    0.00    0.01    0.40    0.00    0.00  176.81    0.55    1.61    0.43    0.00    0.00    0.00    0.00    0.04     0.00    0.00    0.00    0.00
  364    1.94    0.00    0.01    0.40    0.00    0.00  177.39    1.34    2.41    0.44    0.00    0.00    0.00    0.00    0.06     0.00    0.00    0.00    0.00
  365    0.00    0.00    0.01    0.40    0.00    0.00  176.62    0.83    2.10    0.44    0.00    0.00    0.00    0.00    0.00     0.00    0.00    0.00    0.00
   12   50.99    3.03    1.72    8.63   20.11    0.00  176.62   23.75   52.42   14.25    0.04    0.03    0.03    0.59    0.10     0.06    0.00    0.01    0.00

 2003 1100.66  149.82   28.64  307.61  291.43    0.00  176.62  646.82 1179.08  503.43    4.57    1.07    0.57   22.19   69.36     5.24    0.07    0.77    0.00
1
    SWAT Sep 7    VER 2018/Rev 670                                                  

    General Input/Output section (file.cio):                                        
    11/27/2018 12:00:00 AM ARCGIS-SWAT interface AV                                 
                                                                                    
Annual Summary for Watershed in year    5 of simulation

UNIT                                    PERCO    TILE                           WATER     SED     NO3     NO3     NO3     NO3        N       P       P
TIME     PREC    SURQ    LATQ     GWQ    LATE       Q     SW       ET     PET   YIELD   YIELD    SURQ    LATQ    PERC    CROP  ORGANIC SOLUBLE ORGANIC TILENO3
         (mm)    (mm)    (mm)    (mm)    (mm)    (mm)    (mm)    (mm)    (mm)    (mm)   (t/ha)  ------------------(kg nutrient/ha)-------------------- (kg/ha)
    1    0.00    0.00    0.01    0.40    0.00    0.00  176.13    0.55    1.81    0.44    0.00    0.00    0.00    0.00    0.00     0.00    0.00    0.00    0.00
    2    0.00    0.00    0.00    0.40    0.00    0.00  175.68    0.49    1.45    0.44    0.00    0.00    0.00    0.00    0.00     0.00    0.00    0.00    0.00
    3    0.00    0.00    0.00    0.40    0.00    0.00  175.18    0.56    1.71    0.43    0.00    0.00    0.00    0.00    0.00     0.00    0.00    0.00    0.00
    4    0.00    0.00    0.00    0.40    0.00    0.00  174.69    0.54    1.77    0.43    0.00    0.00    0.00    0.00    0.00     0.00    0.00    0.00    0.00
    5    5.88    0.03    0.03    0.40    0.16    0.00  179.06    1.12    1.44    0.49    0.00    0.00    0.00    0.00    0.00     0.00    0.00    0.00    0.00
    6    0.00    0.00    0.02    0.40    0.02    0.00  178.07    1.00    2.07    0.45    0.00    0.00    0.00    0.00    0.00     0.00    0.00    0.00    0.00
    7    0.00    0.00    0.01    0.40    0.00    0.00  177.22    0.90    2.17    0.44    0.00    0.00    0.00    0.00    0.00     0.00    0.00    0.00    0.00
    8    0.30    0.00    0.01    0.39    0.00    0.00  177.06    0.48    1.00    0.43    0.00    0.00    0.00    0.00    0.00     0.00    0.00    0.00    0.00
    9    3.36    0.00    0.02    0.39    0.20    0.00  179.82    0.26    0.33    0.45    0.00    0.00    0.00    0.00    0.00     0.00    0.00    0.00    0.00
   10    0.00    0.00    0.02    0.39    0.02    0.00  179.05    0.77    1.11    0.43    0.00    0.00    0.00    0.00    0.00     0.00    0.00    0.00    0.00
   11    0.00    0.00    0.01    0.39    0.01    0.00  178.44    0.66    1.26    0.43    0.00    0.00    0.00    0.00    0.00     0.00    0.00    0.00    0.00
   12    0.00    0.00    0.01    0.38    0.00    0.00  177.65    0.84    1.81    0.42    0.00    0.00    0.00    0.00    0.00     0.00    0.00    0.00    0.00
   13    0.00    0.00    0.01    0.38    0.00    0.00  177.00    0.68    1.68    0.41    0.00    0.00    0.00    0.00    0.00     0.00    0.00    0.00    0.00
   14    0.00    0.00    0.00    0.37    0.00    0.00  176.38    0.67    1.77    0.41    0.00    0.00    0.00    0.00    0.00     0.00    0.00    0.00    0.00
   15    0.00    0.00    0.00    0.37    0.00    0.00  175.71    0.70    2.02    0.40    0.00    0.00    0.00    0.00    0.00     0.00    0.00    0.00    0.00
   16    0.00    0.00    0.00    0.37    0.00    0.00  175.02    0.75    2.27    0.39    0.00    0.00    0.00    0.00    0.00     0.00    0.00    0.00    0.00
   17    0.00    0.00    0.00    0.36    0.00    0.00  174.61    0.44    1.44    0.39    0.00    0.00    0.00    0.00    0.00     0.00    0.00    0.00    0.00
   18    2.98    0.00    0.01    0.36    0.00    0.00  176.31    1.22    1.81    0.39    0.00    0.00    0.00    0.00    0.00     0.00    0.00    0.00    0.00
   19    0.12    0.00    0.01    0.35    0.00    0.00  176.03    0.41    0.89    0.38    0.00    0.00    0.00    0.00    0.00     0.00    0.00    0.00    0.00
   20    0.00    0.00    0.01    0.34    0.00    0.00  175.43    0.65    1.57    0.37    0.00    0.00    0.00    0.00    0.00     0.00    0.00    0.00    0.00
   21    0.00    0.00    0.00    0.33    0.00    0.00  174.96    0.52    1.41    0.36    0.00    0.00    0.00    0.00    0.00     0.00    0.00    0.00    0.00
   22    0.00    0.00    0.00    0.33    0.00    0.00  174.21    0.81    2.43    0.35    0.00    0.00    0.00    0.00    0.00     0.00    0.00    0.00    0.00
   23    0.00    0.00    0.00    0.32    0.00    0.00  173.35    0.92    3.02    0.35    0.00    0.00    0.00    0.00    0.00     0.00    0.00    0.00    0.00
   24    0.07    0.00    0.00    0.31    0.00    0.00  172.77    0.70    2.26    0.34    0.00    0.00    0.00    0.00    0.00     0.00    0.00    0.00    0.00
   25    1.69    0.00    0.01    0.31    0.00    0.00  173.04    1.42    2.93    0.34    0.00    0.00    0.00    0.00    0.00     0.00    0.00    0.00    0.00
   26   52.29   21.10    0.37    0.32   15.88    0.00  185.65    0.18    0.22   21.55    0.76    0.10    0.01    0.65    0.00     0.85    0.01    0.15    0.00
   27    0.00    0.00    0.26    0.34    1.17    0.00  183.26    1.25    1.62    0.89    0.00    0.00    0.01    0.02    0.00     0.01    0.00    0.00    0.00
   28    0.00    0.00    0.19    0.36    0.40    0.00  181.73    1.19    2.30    0.58    0.00    0.00    0.00    0.01    0.00     0.00    0.00    0.00    0.00
   29    0.00    0.00    0.13    0.37    0.18    0.00  180.83    0.77    1.71    0.53    0.00    0.00    0.00    0.00    0.00     0.00    0.00    0.00    0.00
   30    0.00    0.00    0.10    0.38    0.09    0.00  180.18    0.60    1.46    0.51    0.00    0.00    0.00    0.00    0.00     0.00    0.00    0.00    0.00
   31    0.00    0.00    0.07    0.39    0.04    0.00  179.36    0.81    2.11    0.49    0.00    0.00    0.00    0.00    0.00     0.00    0.00    0.00    0.00
    1   66.69   21.13    1.34   11.40   18.18    0.00  179.36   22.87   52.85   34.69    0.76    0.10    0.03    0.69    0.00     0.86    0.01    0.15    0.00
   32    3.07    0.00    0.06    0.40    0.03    0.00  181.16    1.16    1.46    0.49    0.00    0.00    0.00    0.00    0.00     0.00    0.00    0.00    0.00
   33    3.41    0.00    0.07    0.41    0.80    0.00  182.72    0.90    1.05    0.51    0.00    0.00    0.00    0.02    0.00     0.00    0.00    0.00    0.00
   34    0.11    0.00    0.05    0.42    0.08    0.00  181.96    0.84    1.35    0.50    0.00    0.00    0.00    0.00    0.00     0.00    0.00    0.00    0.00
   35    0.00    0.00    0.04    0.43    0.03    0.00  181.06    0.93    1.83    0.49    0.00    0.00    0.00    0.00    0.00     0.00    0.00    0.00    0.00
   36    0.00    0.00    0.03    0.44    0.01    0.00  180.27    0.82    1.84    0.49    0.00    0.00    0.00    0.00    0.00     0.00    0.00    0.00    0.00
   37   19.29    2.97    0.22    0.45   10.11    0.00  184.82    0.51    0.59    3.62    0.10    0.02    0.01    0.52    0.00     0.11    0.00    0.02    0.00
   38    0.07    0.00    0.16    0.47    0.70    0.00  182.36    1.89    2.94    0.69    0.00    0.00    0.00    0.02    0.00     0.00    0.00    0.00    0.00
   39    0.00    0.00    0.11    0.49    0.22    0.00  181.15    1.05    2.20    0.63    0.00    0.00    0.00    0.01    0.00     0.00    0.00    0.00    0.00
   40    0.00    0.00    0.08    0.50    0.10    0.00  180.51    0.59    1.40    0.61    0.00    0.00    0.00    0.00    0.00     0.00    0.00    0.00    0.00
   41    0.80    0.00    0.06    0.51    0.05    0.00  180.63    0.64    0.81    0.60    0.00    0.00    0.00    0.00    0.00     0.00    0.00    0.00    0.00
   42    6.46    0.07    0.10    0.53    2.17    0.00  183.90    0.62    0.72    0.72    0.00    0.00    0.00    0.11    0.00     0.00    0.00    0.00    0.00
   43   26.55    6.57    0.35    0.56   15.97    0.00  186.18    0.12    0.14    7.42    0.27    0.02    0.01    1.02    0.00     0.28    0.00    0.05    0.00
   44    0.00    0.00    0.25    0.59    1.17    0.00  184.37    0.67    0.79    0.96    0.00    0.00    0.01    0.04    0.00     0.00    0.00    0.00    0.00
   45   25.70    6.20    0.45    0.65   15.76    0.00  186.48    0.08    0.09    7.25    0.28    0.02    0.01    1.09    0.00     0.28    0.00    0.05    0.00
   46    0.75    0.00    0.33    0.69    1.82    0.00  183.86    1.56    1.96    1.14    0.00    0.00    0.01    0.08    0.00     0.00    0.00    0.00    0.00
   47    0.00    0.00    0.24    0.74    0.46    0.00  183.06    0.35    0.65    1.01    0.00    0.00    0.00    0.02    0.00     0.00    0.00    0.00    0.00
   48    0.23    0.00    0.17    0.78    0.21    0.00  182.74    0.34    0.57    0.98    0.00    0.00    0.00    0.01    0.00     0.00    0.00    0.00    0.00
   49    0.00    0.00    0.12    0.82    0.10    0.00  181.50    1.21    2.25    0.97    0.00    0.00    0.00    0.00    0.00     0.00    0.00    0.00    0.00
   50    0.00    0.00    0.09    0.85    0.05    0.00  180.38    1.15    2.61    0.97    0.00    0.00    0.00    0.00    0.00     0.00    0.00    0.00    0.00
   51    0.00    0.00    0.07    0.88    0.02    0.00  179.62    0.80    2.04    0.98    0.00    0.00    0.00    0.00    0.00     0.00    0.00    0.00    0.00
   52    0.00    0.00    0.05    0.90    0.01    0.00  178.43    1.25    3.46    0.98    0.00    0.00    0.00    0.00    0.00     0.00    0.00    0.00    0.00
   53    0.00    0.00    0.04    0.93    0.01    0.00  177.56    0.94    2.85    0.99    0.00    0.00    0.00    0.00    0.00     0.00    0.00    0.00    0.00
   54    4.04    0.00    0.04    0.94    0.00    0.00  180.11    1.39    1.98    1.02    0.00    0.00    0.00    0.00    0.00     0.00    0.00    0.00    0.00
   55    1.66    0.00    0.03    0.96    0.00    0.00  181.17    0.57    0.66    1.03    0.00    0.00    0.00    0.00    0.00     0.00    0.00    0.00    0.00
   56    5.21    0.03    0.07    0.98    1.83    0.00  183.84    0.41    0.46    1.11    0.00    0.00    0.00    0.11    0.00     0.00    0.00    0.00    0.00
   57    0.18    0.00    0.05    0.99    0.17    0.00  183.51    0.34    0.45    1.08    0.00    0.00    0.00    0.01    0.00     0.00    0.00    0.00    0.00
   58    0.00    0.00    0.04    1.00    0.04    0.00  182.78    0.72    1.06    1.08    0.00    0.00    0.00    0.00    0.00     0.00    0.00    0.00    0.00
   59    0.00    0.00    0.03    1.01    0.02    0.00  181.25    1.59    2.88    1.07    0.00    0.00    0.00    0.00    0.00     0.00    0.00    0.00    0.00
   60    0.00    0.00    0.02    1.02    0.01    0.00  179.72    1.60    3.66    1.07    0.00    0.00    0.00    0.00    0.00     0.00    0.00    0.00    0.00
    2   97.51   15.84    3.42   20.35   51.94    0.00  179.72   25.04   44.78   40.47    0.65    0.06    0.07    3.07    0.00     0.69    0.01    0.12    0.00
   61    0.00    0.00    0.02    1.02    0.00    0.00  178.43    1.33    3.58    1.07    0.00    0.00    0.00    0.00    0.00     0.00    0.00    0.00    0.00
   62    0.00    0.00    0.01    1.02    0.00    0.00  177.49    1.00    2.96    1.07    0.00    0.00    0.00    0.00    0.00     0.00    0.00    0.00    0.00
   63    0.00    0.00    0.01    1.03    0.00    0.00  176.65    0.93    2.91    1.07    0.00    0.00    0.00    0.00    0.00     0.00    0.00    0.00    0.00
   64    0.00    0.00    0.01    1.02    0.00    0.00  175.81    0.91    3.07    1.07    0.00    0.00    0.00    0.00    0.00     0.00    0.00    0.00    0.00
   65    0.00    0.00    0.01    1.02    0.00    0.00  175.04    0.84    3.00    1.06    0.00    0.00    0.00    0.00    0.00     0.00    0.00    0.00    0.00
   66    0.88    0.00    0.01    1.02    0.00    0.00  174.74    1.21    2.58    1.06    0.00    0.00    0.00    0.00    0.00     0.00    0.00    0.00    0.00
   67    0.00    0.00    0.00    1.01    0.00    0.00  173.53    1.31    4.61    1.06    0.00    0.00    0.00    0.00    0.00     0.00    0.00    0.00    0.00
   68    0.00    0.00    0.00    1.01    0.00    0.00  172.26    1.37    5.62    1.05    0.00    0.00    0.00    0.00    0.00     0.00    0.00    0.00    0.00
   69    0.00    0.00    0.00    1.00    0.00    0.00  171.51    0.80    3.59    1.04    0.00    0.00    0.00    0.00    0.00     0.00    0.00    0.00    0.00
   70    0.00    0.00    0.00    0.99    0.00    0.00  170.92    0.67    3.05    1.03    0.00    0.00    0.00    0.00    0.00     0.00    0.00    0.00    0.00
   71    0.00    0.00    0.00    0.99    0.00    0.00  170.28    0.74    3.45    1.02    0.00    0.00    0.00    0.00    0.00     0.00    0.00    0.00    0.00
   72    0.00    0.00    0.00    0.98    0.00    0.00  169.50    0.88    4.30    1.01    0.00    0.00    0.00    0.00    0.00     0.00    0.00    0.00    0.00
   73    0.00    0.00    0.00    0.97    0.00    0.00  168.75    0.85    4.30    1.00    0.00    0.00    0.00    0.00    0.00     0.00    0.00    0.00    0.00
   74    0.00    0.00    0.00    0.96    0.00    0.00  168.20    0.64    3.34    0.99    0.00    0.00    0.00    0.00    0.00     0.00    0.00    0.00    0.00
   75    0.00    0.00    0.00    0.94    0.00    0.00  167.86    0.40    2.12    0.98    0.00    0.00    0.00    0.00    0.00     0.00    0.00    0.00    0.00
   76    0.30    0.00    0.00    0.93    0.00    0.00  167.74    0.46    1.55    0.97    0.00    0.00    0.00    0.00    0.00     0.00    0.00    0.00    0.00
   77    0.00    0.00    0.00    0.92    0.00    0.00  166.93    0.92    4.52    0.96    0.00    0.00    0.00    0.00    0.00     0.00    0.00    0.00    0.00
   78    0.00    0.00    0.00    0.91    0.00    0.00  166.14    0.90    5.08    0.94    0.00    0.00    0.00    0.00    0.00     0.00    0.00    0.00    0.00
   79    0.00    0.00    0.00    0.89    0.00    0.00  165.48    0.78    4.55    0.93    0.00    0.00    0.00    0.00    0.00     0.00    0.00    0.00    0.00
   80    0.00    0.00    0.00    0.88    0.00    0.00  164.75    0.86    5.23    0.92    0.00    0.00    0.00    0.00    0.00     0.00    0.00    0.00    0.00
   81    0.00    0.00    0.00    0.87    0.00    0.00  163.90    0.95    6.15    0.90    0.00    0.00    0.00    0.00    0.00     0.00    0.00    0.00    0.00
   82    0.00    0.00    0.00    0.85    0.00    0.00  163.27    0.73    4.87    0.89    0.00    0.00    0.00    0.00    0.00     0.00    0.00    0.00    0.00
   83    0.00    0.00    0.00    0.84    0.00    0.00  162.71    0.67    4.48    0.87    0.00    0.00    0.00    0.00    0.00     0.00    0.00    0.00    0.00
   84    0.00    0.00    0.00    0.82    0.00    0.00  162.10    0.72    4.95    0.86    0.00    0.00    0.00    0.00    0.00     0.00    0.00    0.00    0.00
   85    0.00    0.00    0.00    0.81    0.00    0.00  161.58    0.63    4.43    0.85    0.00    0.00    0.00    0.00    0.00     0.00    0.00    0.00    0.00
   86    0.00    0.00    0.00    0.79    0.00    0.00  161.07    0.61    4.35    0.83    0.00    0.00    0.00    0.00    0.00     0.00    0.00    0.00    0.00
   87    0.00    0.00    0.00    0.78    0.00    0.00  160.65    0.53    3.80    0.82    0.00    0.00    0.00    0.00    0.00     0.00    0.00    0.00    0.00
   88    0.00    0.00    0.00    0.77    0.00    0.00  160.14    0.63    4.57    0.80    0.00    0.00    0.00    0.00    0.00     0.00    0.00    0.00    0.00
   89    0.00    0.00    0.00    0.75    0.00    0.00  159.65    0.61    4.65    0.79    0.00    0.00    0.00    0.00    0.00     0.00    0.00    0.00    0.00
   90    2.71    0.00    0.01    0.74    0.00    0.00  161.34    0.98    2.37    0.78    0.00    0.00    0.00    0.00    0.05     0.00    0.00    0.00    0.00
   91    2.13    0.00    0.01    0.72    0.00    0.00  162.16    1.32    4.05    0.77    0.00    0.00    0.00    0.00    0.13     0.00    0.00    0.00    0.00
    3    6.02    0.00    0.11   28.26    0.01    0.00  162.16   26.19  122.08   29.49    0.00    0.00    0.00    0.00    0.19     0.00    0.00    0.00    0.00
[...]
     58   2   LREW02     .261E-01   35.00  138.40    0.48    0.00    0.00    0.00    0.20 1042.89    6.07  319.68  683.00    0.00    0.08    0.00   22.86    0.00    6.07
     59   2   LREW03     .211E+00   55.00  173.20    0.60    0.00    0.00    0.00    0.20 1042.89   49.96  288.05  669.59    0.01    0.15    0.01   17.36    0.00   49.96
     60   2   LREW04     .288E-01   55.00  285.90    0.31    0.00    0.00    0.00    0.20 1042.89   36.98  235.44  738.90    0.00    0.18    0.01   18.78    0.00   36.98
     61   2   LREW05     .963E-01   55.00  167.60    0.42    0.00    0.00    0.00    0.20 1042.89   53.06  285.33  670.41    0.01    0.20    0.01   21.21    0.00   53.06
     62   2   LREW06     .926E+00   55.00  192.20    0.56    0.00    0.00    0.00    0.20 1042.89   46.73  308.05  653.37    0.01    0.27    0.01   17.41    0.00   46.73
     63   2   LREW08     .387E-01   70.00  203.90    0.87    0.00    0.00    0.00    0.20 1042.89  136.88  190.65  683.70    0.05    0.43    0.16   19.16    0.00  136.88
     64   2   LREW09     .702E-01   70.00  136.40    0.54    0.00    0.00    0.00    0.20 1042.89  146.59  206.80  657.64    0.02    0.49    0.04   22.59    0.00  146.59
     65   2   LREW10     .275E+00   77.00  159.80    0.40    0.00    0.00    0.00    0.20 1042.89  215.89  126.47  671.41    0.02    0.73    0.06   23.32    0.00  215.89
     66   2   LREW03     .558E-01   66.00  173.20    0.67    0.00    0.00    0.00    0.20 1042.89  114.57  233.20  661.24    0.02    0.33    0.01   17.56    0.00  114.57
     67   2   LREW04     .180E-01   66.00  285.90    0.15    0.00    0.00    0.00    0.20 1042.89   88.01  198.26  724.83    0.00    0.26    0.01   18.57    0.00   88.01
     68   2   LREW05     .288E-01   66.00  167.60    0.42    0.00    0.00    0.00    0.20 1042.89  120.11  236.76  652.48    0.01    0.39    0.03   20.92    0.00  120.11
     69   2   LREW06     .191E+00   66.00  192.20    0.63    0.00    0.00    0.00    0.20 1042.89  107.61  253.81  648.24    0.01    0.45    0.02   17.62    0.00  107.62
     70   2   LREW08     .180E-01   77.00  203.90    0.54    0.00    0.00    0.00    0.20 1042.89  217.03  131.17  664.60    0.04    0.68    0.14   19.26    0.00  217.03
     71   2   LREW09     .135E-01   77.00  136.40    0.38    0.00    0.00    0.00    0.20 1042.89  227.16  146.96  638.11    0.01    0.75    0.04   22.07    0.00  227.16
     72   2   LREW10     .175E+00   83.00  159.80    0.42    0.00    0.00    0.00    0.20 1042.89  305.95   69.48  642.03    0.03    1.10    0.08   22.53    0.00  305.95
     73   2   LREW02     .360E-02   45.00  138.40    0.35    0.00    0.00    0.00    0.20 1042.89   22.74  324.82  659.63    0.36    0.09    0.40   17.75    0.00   22.75
     74   2   LREW03     .360E-02   66.00  173.20    0.80    0.00    0.00    0.00    0.20 1042.89  122.94  263.52  621.02    6.60    0.33    1.33   12.49    0.00  122.94
     75   2   LREW04     .891E-01   66.00  285.90    0.30    0.00    0.00    0.00    0.20 1042.89   96.01  228.92  684.69    5.24    0.28    3.24   13.33    0.00   96.01
     76   2   LREW05     .225E-01   66.00  167.60    0.27    0.00    0.00    0.00    0.20 1042.89  128.62  259.18  619.60    2.73    0.33    3.72   16.23    0.00  128.62
     77   2   LREW06     .684E-01   66.00  192.20    0.70    0.00    0.00    0.00    0.20 1042.89  117.11  287.87  602.60    5.10    0.41    3.31   12.68    0.00  117.11
     78   2   LREW08     .342E-01   77.00  203.90    0.82    0.00    0.00    0.00    0.20 1042.89  236.84  159.23  615.30   25.43    0.63   15.11   13.69    0.00  236.84
     79   2   LREW09     .126E-01   77.00  136.40    0.52    0.00    0.00    0.00    0.20 1042.89  237.73  158.20  615.46    6.55    0.67    7.67   17.96    0.00  237.73
     80   2   LREW10     .118E+00   83.00  159.80    0.30    0.00    0.00    0.00    0.20 1042.89  321.56   73.04  621.78    7.04    0.94    8.14   18.45    0.00  321.56
     81   2   LREW12     .162E+00   92.00    0.25    0.38    0.00    0.00    0.00    0.20 1042.89    0.00    0.00 1441.81    0.00    0.00    0.00    0.00    0.00    0.00
     82   2   LREW02     .270E-02   41.93  138.40    0.27    0.00  269.43    0.00    0.20 1042.89   87.39  269.35  651.24    0.18    3.27    1.29   25.40   17.75   87.39
     83   2   LREW03     .630E-02   63.29  173.20    0.89    0.00  311.14    0.00    0.20 1042.89  149.28  201.64  658.36    2.05    6.94    2.03   28.20   19.68  149.28
     84   2   LREW04     .360E-02   63.29  285.90    0.63    0.00  316.57    0.00    0.20 1042.89  125.77  153.63  735.81    1.43    7.27    2.78   30.21   21.05  125.77
     85   2   LREW06     .315E-01   63.29  192.20    0.52    0.00  321.88    0.00    0.20 1042.89  142.72  213.80  652.56    0.77    7.50    1.52   29.05   20.25  142.72
     86   2   LREW08     .279E-01   74.86  203.90    1.00    0.00  318.17    0.00    0.20 1042.89  228.59  138.71  644.32    6.29   10.06   10.74   28.86   20.12  228.59
     87   2   LREW10     .360E-02   81.09  159.80    0.38    0.00  273.33    0.00    0.20 1042.89  306.75   71.23  636.79    1.79    9.31    4.83   25.96   18.13  306.75
     88   3   LREW02     .900E-03   67.00  138.40    0.30    0.00    0.00    0.00    1.28 1105.67  159.11  256.50  654.80    1.57    1.44    2.47   13.23    4.87  159.11
     89   3   LREW03     .990E-01   77.00  173.20    0.42    0.00    0.00    0.00    1.25 1105.67  264.93  170.65  635.59    9.76    2.92    6.08   13.84    4.97  264.93
     90   3   LREW04     .180E-02   77.00  285.90    0.36    0.00    0.00    0.00    1.28 1105.67  221.02  156.80  698.78    6.43    2.67    8.56   13.45    4.96  221.02
     91   3   LREW05     .128E+00   77.00  167.60    0.50    0.00    0.00    0.00    1.25 1105.67  268.79  183.78  619.33   11.95    2.86   19.32   14.23    5.24  268.79
     92   3   LREW06     .224E+01   77.00  192.20    0.52    0.00    0.00    0.00    1.25 1105.67  253.72  194.00  623.55    9.86    4.53   12.15   13.52    4.85  253.73
     93   3   LREW08     .558E-01   83.00  203.90    0.70    0.00    0.00    0.00    1.25 1105.67  357.83  103.51  615.41   31.46    5.60   22.00   14.05    5.05  357.83
     94   3   LREW09     .558E-01   83.00  136.40    0.33    0.00    0.00    0.00    1.25 1105.67  371.50  108.89  595.51    8.04    4.75   17.96   13.52    4.85  371.51
     95   3   LREW10     .104E+00   87.00  159.80    0.60    0.00    0.00    0.00    1.28 1105.67  435.85   42.79  606.20   20.36    6.17   33.66   13.35    4.92  435.86
     96   3   LREW02     .180E-02   49.00  138.40    0.30    0.00    0.00    0.00    0.20 1105.67   47.03  364.91  654.21    0.37    0.14    0.42    2.52    1.76   47.03
     97   3   LREW03     .486E-01   69.00  173.20    0.60    0.00    0.00    0.00    0.20 1105.67  185.06  275.78  606.66    8.82    0.44    1.58    1.56    1.09  185.06
     98   3   LREW04     .594E-01   69.00  285.90    0.26    0.00    0.00    0.00    0.20 1105.67  149.46  245.01  675.14    4.95    0.37    3.57    1.69    1.18  149.47
     99   3   LREW05     .176E+00   69.00  167.60    0.56    0.00    0.00    0.00    0.20 1105.67  191.38  275.08  601.66    8.45    0.51    7.71    2.19    1.53  191.38
    100   3   LREW06     .208E+00   69.00  192.20    0.56    0.00    0.00    0.00    0.20 1105.67  178.14  301.85  587.59    6.22    0.54    4.04    1.57    1.09  178.15
    101   3   LREW08     .250E+00   79.00  203.90    0.76    0.00    0.00    0.00    0.20 1105.67  314.90  167.72  589.70   36.69    0.81   16.34    1.76    1.23  314.90
    102   3   LREW09     .108E+00   79.00  136.40    0.33    0.00    0.00    0.00    0.20 1105.67  311.64  153.07  607.66    5.07    0.80    7.39    2.60    1.82  311.65
    103   3   LREW10     .152E+00   84.00  159.80    0.44    0.00    0.00    0.00    0.20 1105.67  384.09   74.32  620.87    9.47    1.04    9.86    2.75    1.92  384.10
    104   3   LREW02     .630E-02   35.00  138.40    0.30    0.00    0.00    0.00    0.20 1105.67   10.93  372.01  685.42    0.00    0.07    0.00   22.66    0.00   10.93
    105   3   LREW03     .693E-01   55.00  173.20    0.70    0.00    0.00    0.00    0.20 1105.67   63.76  336.74  666.76    0.01    0.19    0.01   17.16    0.00   63.76
    106   3   LREW04     .104E+00   55.00  285.90    0.30    0.00    0.00    0.00    0.20 1105.67   51.19  285.36  734.46    0.01    0.21    0.01   18.41    0.00   51.19
    107   3   LREW05     .406E+00   55.00  167.60    0.75    0.00    0.00    0.00    0.20 1105.67   67.15  332.83  669.46    0.02    0.28    0.03   20.95    0.00   67.15
    108   3   LREW06     .121E+01   55.00  192.20    0.58    0.00    0.00    0.00    0.20 1105.67   59.89  360.22  647.85    0.01    0.32    0.01   17.13    0.00   59.89
    109   3   LREW08     .248E+00   70.00  203.90    0.87    0.00    0.00    0.00    0.20 1105.67  165.63  226.32  679.61    0.07    0.51    0.23   19.07    0.00  165.63
    110   3   LREW09     .414E-01   70.00  136.40    0.40    0.00    0.00    0.00    0.20 1105.67  174.72  238.37  658.50    0.01    0.55    0.03   22.35    0.00  174.72
    111   3   LREW10     .370E+00   77.00  159.80    0.52    0.00    0.00    0.00    0.20 1105.67  249.52  154.85  670.84    0.03    0.84    0.08   23.14    0.00  249.52
    112   3   LREW02     .720E-02   45.00  138.40    0.27    0.00    0.00    0.00    0.20 1105.67   30.36  362.12  675.05    0.00    0.10    0.00   21.79    0.00   30.36
    113   3   LREW03     .297E-01   66.00  173.20    0.28    0.00    0.00    0.00    0.20 1105.67  139.46  270.45  659.01    0.01    0.37    0.01   17.42    0.00  139.46
    114   3   LREW04     .711E-01   66.00  285.90    0.27    0.00    0.00    0.00    0.20 1105.67  109.72  239.52  722.14    0.01    0.34    0.02   18.35    0.00  109.72
    115   3   LREW05     .999E-01   66.00  167.60    0.60    0.00    0.00    0.00    0.20 1105.67  144.96  274.91  650.19    0.02    0.48    0.05   20.70    0.00  144.96
    116   3   LREW06     .159E+00   66.00  192.20    0.58    0.00    0.00    0.00    0.20 1105.67  131.59  294.28  643.84    0.02    0.51    0.02   17.36    0.00  131.59
    117   3   LREW08     .103E+00   77.00  203.90    0.82    0.00    0.00    0.00    0.20 1105.67  253.21  160.28  660.17    0.09    0.79    0.29   19.16    0.00  253.21
    118   3   LREW09     .243E-01   77.00  136.40    0.30    0.00    0.00    0.00    0.20 1105.67  263.85  172.31  637.10    0.01    0.84    0.03   21.88    0.00  263.85
    119   3   LREW10     .226E+00   83.00  159.80    0.42    0.00    0.00    0.00    0.20 1105.67  349.99   88.83  640.40    0.04    1.23    0.09   22.41    0.00  349.99
    120   3   LREW03     .180E-02   66.00  173.20    0.54    0.00    0.00    0.00    0.20 1105.67  148.71  298.03  620.59    4.52    0.36    1.13   12.52    0.00  148.71
    121   3   LREW04     .343E+00   66.00  285.90    0.29    0.00    0.00    0.00    0.20 1105.67  117.71  265.72  686.20    6.65    0.31    3.80   13.38    0.00  117.71
    122   3   LREW05     .333E-01   66.00  167.60    0.60    0.00    0.00    0.00    0.20 1105.67  153.77  297.49  617.21    7.53    0.44    6.82   16.14    0.00  153.77
    123   3   LREW06     .729E-01   66.00  192.20    0.70    0.00    0.00    0.00    0.20 1105.67  141.98  325.93  600.02    5.87    0.47    3.68   12.64    0.00  141.98
    124   3   LREW08     .125E+00   77.00  203.90    0.58    0.00    0.00    0.00    0.20 1105.67  274.02  185.15  613.07   23.18    0.71   15.25   13.82    0.00  274.02
    125   3   LREW09     .315E-01   77.00  136.40    0.27    0.00    0.00    0.00    0.20 1105.67  276.23  180.63  615.20    4.13    0.74    6.25   17.94    0.00  276.23
    126   3   LREW10     .238E+00   83.00  159.80    0.35    0.00    0.00    0.00    0.20 1105.67  366.61   91.64  620.33    9.88    1.06    9.58   18.49    0.00  366.61
    127   3   LREW12     .819E-01   92.00    0.25    0.40    0.00    0.00    0.00    0.20 1105.67    0.00    0.00 1441.81    0.00    0.00    0.00    0.00    0.00    0.00
    128   3   LREW03     .900E-03   63.29  173.20    0.58    0.00  314.73    0.00    0.20 1105.67  176.63  233.73  659.16    1.00    7.00    2.68   28.42   19.83  176.63
    129   3   LREW04     .180E-02   63.29  285.90    0.27    0.00  323.00    0.00    0.20 1105.67  152.67  184.96  738.45    0.55    5.72    2.16   30.82   21.47  152.67
    130   3   LREW05     .630E-02   63.29  167.60    0.40    0.00  306.44    0.00    0.20 1105.67  183.56  242.29  643.81    0.89    4.56    2.57   28.30   19.75  183.56
    131   3   LREW06     .315E-01   63.29  192.20    0.56    0.00  329.22    0.00    0.20 1105.67  168.83  248.46  652.63    0.82    8.94    1.59   29.43   20.52  168.83
    132   3   LREW08     .270E-02   74.86  203.90    0.40    0.00  321.46    0.00    0.20 1105.67  270.53  154.81  646.59    1.76    8.51    6.09   29.27   20.41  270.53
    133   3   LREW09     .900E-03   74.86  136.40    0.48    0.00  278.83    0.00    0.20 1105.67  285.30  166.74  620.17    1.19    8.51    4.74   25.99   18.15  285.30
    134   3   LREW10     .720E-02   81.09  159.80    0.38    0.00  273.20    0.00    0.20 1105.67  352.86   87.55  635.91    1.78    9.34    4.59   25.99   18.15  352.86



                AVE MONTHLY BASIN VALUES
                   SNOW                      WATER               SED
  MON     RAIN     FALL   SURF Q    LAT Q    YIELD       ET    YIELD      PET
          (MM)     (MM)     (MM)     (MM)     (MM)     (MM)   (T/HA)     (MM)
    1    83.91     0.01    17.76     2.57    41.90    25.31     0.53    54.49
    2    95.31     0.00    18.79     2.82    48.81    29.86     0.66    64.20
    3    95.62     0.00    28.31     2.40    64.39    36.87     1.28   103.11
    4    91.15     0.00    24.54     2.32    60.77    49.25     1.05   137.96
    5    64.39     0.00    10.90     1.38    39.06    76.03     0.45   164.18
    6   109.84     0.00    11.88     2.37    29.16   100.46     0.31   158.63
    7   111.43     0.00    12.96     2.21    24.92   103.37     0.18   158.72
    8   146.72     0.00    15.10     3.34    25.61    88.57     0.16   138.64
    9    75.44     0.00    17.42     1.65    26.15    61.67     0.20   120.07
   10    59.50     0.00     8.03     1.39    16.24    41.75     0.14    92.41
   11    58.63     0.00     6.70     1.30    13.77    22.87     0.12    66.50
   12   104.68     0.00    20.21     3.33    34.03    22.70     0.32    50.03

     AVE ANNUAL BASIN STRESS DAYS
               WATER STRESS DAYS =     4.27
               TEMPERATURE STRESS DAYS =     9.55
               NITROGEN STRESS DAYS =    42.22
               PHOSPHORUS STRESS DAYS =     0.15
               AERATION STRESS DAYS =     0.00
1
    SWAT Sep 7    VER 2018/Rev 670                                                  

    General Input/Output section (file.cio):                                        
    11/27/2018 12:00:00 AM ARCGIS-SWAT interface AV                                 
                                                                                    
         AVE ANNUAL BASIN VALUES

              PRECIP =   1094.3 MM
              SNOW FALL =    0.01 MM
              SNOW MELT =     0.01 MM
              SUBLIMATION =     0.00 MM
              SURFACE RUNOFF Q =   192.15 MM
              LATERAL SOIL Q =   27.02 MM
              TILE Q =     0.00 MM
              GROUNDWATER (SHAL AQ) Q =   192.84 MM
              GROUNDWATER (DEEP AQ) Q =    11.60 MM
              REVAP (SHAL AQ => SOIL/PLANTS) =   25.16 MM
              DEEP AQ RECHARGE =    11.38 MM
              TOTAL AQ RECHARGE =  227.56 MM
              TOTAL WATER YLD =   423.62 MM
              PERCOLATION OUT OF SOIL =  225.83 MM
              ET =    658.0 MM
              PET =   1307.4MM
              TRANSMISSION LOSSES =     0.00 MM
              SEPTIC INFLOW =       0.00 MM
              TOTAL SEDIMENT LOADING =      5.38 T/HA
              TILE FROM IMPOUNDED WATER =     0.000 (MM)
              EVAPORATION FROM IMPOUNDED WATER =     0.000 (MM)
              SEEPAGE INTO SOIL FROM IMPOUNDED WATER =    0.000 (MM)
              OVERFLOW FROM IMPOUNDED WATER =    0.000 (MM)
1
    SWAT Sep 7    VER 2018/Rev 670                                                  

    General Input/Output section (file.cio):                                        
    11/27/2018 12:00:00 AM ARCGIS-SWAT interface AV                                 
                                                                                    
              AVE ANNUAL BASIN VALUES


              NUTRIENTS
                   ORGANIC N =     5.848 (KG/HA)
                   ORGANIC P =     0.942 (KG/HA)
                   NO3 YIELD (SQ) =     1.428 (KG/HA)
                   NO3 YIELD (LAT) =    0.525 (KG/HA)
                   NO3 YIELD (TILE) =    0.000 (KG/HA)
                   SOLP YIELD (TILE) =    0.000(KG/HA)
                   SOLP YIELD (SURF INLET RISER) =    0.000 (KG/HA)
                   SOL P YIELD =    0.107 (KG/HA)
                   NO3 LEACHED =    17.057 (KG/HA)
                   P LEACHED =     0.090 (KG/HA)
                   N UPTAKE =    92.135 (KG/HA)
                   P UPTAKE =   20.105 (KG/HA)
                   NO3 YIELD (GWQ) =     0.135 (KG/HA)
                   ACTIVE TO SOLUTION P FLOW =        -5.377 (KG/HA)
                   ACTIVE TO STABLE P FLOW =        -5.147 (KG/HA)
                   N FERTILIZER APPLIED =    34.358 (KG/HA)
                   P FERTILIZER APPLIED =     4.395 (KG/HA)
                   N FIXATION =    33.130 (KG/HA)
                   DENITRIFICATION =     0.004 (KG/HA)
                   HUMUS MIN ON ACTIVE ORG N =     5.646 (KG/HA)
                   ACTIVE TO STABLE ORG N =     0.713 (KG/HA)
                   HUMUS MIN ON ACTIVE ORG P =    1.007 (KG/HA)
                   MIN FROM FRESH ORG N =   35.557 (KG/HA)
                   MIN FROM FRESH ORG P =   12.348 (KG/HA)
                   NO3 IN RAINFALL =    10.682 (KG/HA)
                   INITIAL NO3 IN SOIL =      64.982 (KG/HA)
                   FINAL NO3 IN SOIL =        21.645 (KG/HA)
                   INITIAL ORG N IN SOIL =    4778.182 (KG/HA)
                   FINAL ORG N IN SOIL =      4779.843 (KG/HA)
                   INITIAL MIN P IN SOIL =    3622.463 (KG/HA)
                   FINAL MIN P IN SOIL =      3520.246 (KG/HA)
                   INITIAL ORG P IN SOIL =     585.327 (KG/HA)
                   FINAL ORG P IN SOIL =     608.734 (KG/HA)
                   NO3 IN FERT =    34.358 (KG/HA)
                   AMMONIA IN FERT =     0.000 (KG/HA)
                   ORG N IN FERT =     0.000 (KG/HA)
                   MINERAL P IN FERT =     4.395 (KG/HA)
                   ORG P IN FERT =     0.000 (KG/HA)
                   N REMOVED IN YIELD =    53.278 (KG/HA)
                   P REMOVED IN YIELD =     6.946 (KG/HA)
                   AMMONIA VOLATILIZATION =     0.000 (KG/HA)
                   AMMONIA NITRIFICATION =      0.000 (KG/HA)
                   NO3 EVAP-LAYER 2 TO 1 =   28.596

                   DIE-GRO P Q =           0.0 (No/M2)
                   DIE-GRO LP Q =           0.0 (No/M2)
                   DIE-GRO P SED =          0.0 (No/M2)
                   DIE-GRO LP SED =          0.0 (No/M2)
                   BACT P RUNOFF =          0.0 (No/M2)
                   BACT LP RUNOFF =          0.0 (No/M2)
                   BACT P SEDIMENT =          0.0 (No/M2)
                   BACT LP SEDIMENT =          0.0 (No/M2)
                   BACT P INCORP =          0.0 (No/M2)
                   BACT LP INCORP =          0.0 (No/M2)

                   NITRATE SEPTIC =         0.00 (kg/ha)
                   AMMONIA SEPTIC =         0.00 (kg/ha)
                   ORG N SEPTIC =         0.00 (kg/ha)
                   FRESH ORGN SEPTIC =         0.00 (kg/ha)
                   ORG P SEPTIC =         0.00 (kg/ha)
                   FRESH ORGP SEPTIC =         0.00 (kg/ha)
                   SOL P SEPTIC =         0.00 (kg/ha)
                   BOD SEPTIC =         0.00 (kg/ha)
