1
    SWAT Sep 7    VER 2018/Rev 670                                                                       0/ 0/   0      0: 0: 0

    General Input/Output section (file.cio):                                        
    11/27/2018 12:00:00 AM ARCGIS-SWAT interface AV                                 
                                                                                    


       SUB      GIS  MON   AREAkm2  PRECIPmm SNOMELTmm     PETmm      ETmm      SWmm    PERCmm    SURQmm    GW_Qmm    WYLDmm  SYLDt/ha ORGNkg/ha ORGPkg/haNSURQkg/ha SOLPkg/ha SEDPkg/ha LAT Q(mm)LATNO3kg/hGWNO3kg/haCHOLAmic/LCBODU mg/L DOXQ mg/L TNO3kg/ha   QTILEmm TVAPkg/ha
BIGSUB    1        0    1.87822E+01 0.580E+01 0.000E+00 0.103E+01 0.733E+00 0.191E+03 0.494E+01 0.133E+00 0.123E+01 0.167E+01 0.454E-10 0.360E-02 0.614E-03 0.311E-02 0.197E-03 0.994E-03 0.276E+00 0.936E-02 0.149E-02 .34085E-04 0.264E-09 0.163E+00 0.000E+00 0.000E+00 0.000E+00
BIGSUB    2        0    1.53442E+01 0.360E+01 0.000E+00 0.102E+01 0.723E+00 0.184E+03 0.309E+01 0.610E-01 0.127E+01 0.163E+01 0.839E-10 0.207E-02 0.353E-03 0.118E-02 0.903E-04 0.590E-03 0.259E+00 0.641E-02 0.119E-02 .34908E-05 0.129E-09 0.159E+00 0.000E+00 0.000E+00 0.000E+00
BIGSUB    3        0    1.78363E+01 0.310E+01 0.000E+00 0.101E+01 0.701E+00 0.191E+03 0.304E+01 0.601E-01 0.119E+01 0.153E+01 0.585E-10 0.196E-02 0.339E-03 0.108E-02 0.530E-04 0.428E-03 0.247E+00 0.465E-02 0.324E-03 .19546E-05 0.343E-10 0.152E+00 0.000E+00 0.000E+00 0.000E+00
BIGSUB    1        0    2.87822E+01 0.500E+00 0.000E+00 0.184E+01 0.140E+01 0.189E+03 0.453E+00 0.306E-02 0.125E+01 0.149E+01 0.454E-10 0.935E-04 0.164E-04 0.699E-04 0.546E-05 0.269E-04 0.198E+00 0.663E-02 0.158E-02 .50229E-09 0.000E+00 0.142E+00 0.000E+00 0.000E+00 0.000E+00
BIGSUB    2        0    2.53442E+01 0.000E+00 0.000E+00 0.183E+01 0.108E+01 0.182E+03 0.348E+00 0.907E-03 0.130E+01 0.152E+01 0.839E-10 0.328E-04 0.571E-05 0.182E-04 0.152E-05 0.945E-05 0.185E+00 0.457E-02 0.125E-02 .14888E-10 0.000E+00 0.146E+00 0.000E+00 0.000E+00 0.000E+00
BIGSUB    3        0    2.78363E+01 0.500E+00 0.000E+00 0.180E+01 0.139E+01 0.189E+03 0.637E+00 0.106E-02 0.121E+01 0.143E+01 0.585E-10 0.358E-04 0.633E-05 0.202E-04 0.102E-05 0.788E-05 0.179E+00 0.331E-02 0.346E-03 .19371E-10 0.000E+00 0.139E+00 0.000E+00 0.000E+00 0.000E+00
BIGSUB    1        0    3.87822E+01 0.000E+00 0.000E+00 0.126E+01 0.642E+00 0.189E+03 0.151E+00 0.915E-04 0.127E+01 0.145E+01 0.454E-10 0.280E-05 0.494E-06 0.204E-05 0.166E-06 0.814E-06 0.141E+00 0.470E-02 0.164E-02 .55003E-14 0.000E+00 0.159E+00 0.000E+00 0.000E+00 0.000E+00
BIGSUB    2        0    3.53442E+01 0.000E+00 0.000E+00 0.126E+01 0.604E+00 0.182E+03 0.131E+00 0.161E-04 0.131E+01 0.149E+01 0.839E-10 0.573E-06 0.101E-06 0.316E-06 0.277E-07 0.166E-06 0.133E+00 0.326E-02 0.130E-02 .68025E-16 0.000E+00 0.163E+00 0.000E+00 0.000E+00 0.000E+00
BIGSUB    3        0    3.78363E+01 0.000E+00 0.000E+00 0.128E+01 0.640E+00 0.189E+03 0.268E+00 0.215E-04 0.123E+01 0.140E+01 0.585E-10 0.713E-06 0.127E-06 0.405E-06 0.213E-07 0.159E-06 0.129E+00 0.236E-02 0.364E-03 .17826E-15 0.000E+00 0.156E+00 0.000E+00 0.000E+00 0.000E+00
BIGSUB    1        0    4.87822E+01 0.000E+00 0.000E+00 0.155E+01 0.725E+00 0.188E+03 0.663E-01 0.338E-05 0.129E+01 0.143E+01 0.454E-10 0.866E-07 0.157E-07 0.629E-07 0.566E-08 0.261E-07 0.101E+00 0.334E-02 0.169E-02 .16777E-18 0.000E+00 0.163E+00 0.000E+00 0.000E+00 0.000E+00
BIGSUB    2        0    4.53442E+01 0.000E+00 0.000E+00 0.155E+01 0.700E+00 0.181E+03 0.630E-01 0.999E-06 0.133E+01 0.147E+01 0.839E-10 0.109E-07 0.249E-08 0.633E-08 0.119E-08 0.435E-08 0.960E-01 0.233E-02 0.133E-02 .13231E-20 0.000E+00 0.167E+00 0.000E+00 0.000E+00 0.000E+00
BIGSUB    3        0    4.78363E+01 0.000E+00 0.000E+00 0.152E+01 0.691E+00 0.188E+03 0.129E+00 0.113E-05 0.125E+01 0.138E+01 0.585E-10 0.152E-07 0.327E-08 0.893E-08 0.112E-08 0.460E-08 0.937E-01 0.168E-02 0.378E-03 .19781E-20 0.000E+00 0.161E+00 0.000E+00 0.000E+00 0.000E+00
BIGSUB    1        0    5.87822E+01 0.000E+00 0.000E+00 0.173E+01 0.735E+00 0.187E+03 0.301E-01 0.986E-06 0.130E+01 0.141E+01 0.454E-10 0.322E-08 0.104E-08 0.249E-08 0.954E-09 0.219E-08 0.731E-01 0.237E-02 0.172E-02 .11773E-20 0.000E+00 0.150E+00 0.000E+00 0.000E+00 0.000E+00
BIGSUB    2        0    5.53442E+01 0.000E+00 0.000E+00 0.172E+01 0.722E+00 0.180E+03 0.316E-01 0.992E-06 0.134E+01 0.145E+01 0.839E-10 0.963E-09 0.962E-09 0.962E-09 0.962E-09 0.192E-08 0.696E-01 0.167E-02 0.135E-02 .11780E-20 0.000E+00 0.155E+00 0.000E+00 0.000E+00 0.000E+00
BIGSUB    3        0    5.78363E+01 0.000E+00 0.000E+00 0.169E+01 0.697E+00 0.187E+03 0.633E-01 0.992E-06 0.126E+01 0.137E+01 0.585E-10 0.992E-09 0.981E-09 0.981E-09 0.981E-09 0.196E-08 0.685E-01 0.120E-02 0.388E-03 .23605E-21 0.000E+00 0.149E+00 0.000E+00 0.000E+00 0.000E+00
BIGSUB    1        0    6.87822E+01 0.000E+00 0.000E+00 0.216E+01 0.848E+00 0.186E+03 0.132E-01 0.986E-06 0.131E+01 0.140E+01 0.454E-10 0.954E-09 0.954E-09 0.954E-09 0.954E-09 0.191E-08 0.529E-01 0.169E-02 0.174E-02 .17940E-20 0.000E+00 0.147E+00 0.000E+00 0.000E+00 0.000E+00
BIGSUB    2        0    6.53442E+01 0.000E+00 0.000E+00 0.215E+01 0.837E+00 0.179E+03 0.161E-01 0.992E-06 0.135E+01 0.144E+01 0.839E-10 0.962E-09 0.962E-09 0.962E-09 0.962E-09 0.192E-08 0.507E-01 0.121E-02 0.137E-02 .21090E-20 0.000E+00 0.152E+00 0.000E+00 0.000E+00 0.000E+00
BIGSUB    3        0    6.78363E+01 0.000E+00 0.000E+00 0.213E+01 0.811E+00 0.186E+03 0.316E-01 0.992E-06 0.127E+01 0.136E+01 0.585E-10 0.981E-09 0.981E-09 0.981E-09 0.981E-09 0.196E-08 0.505E-01 0.864E-03 0.396E-03 .16534E-21 0.000E+00 0.146E+00 0.000E+00 0.000E+00 0.000E+00
BIGSUB    1        0    7.87822E+01 0.000E+00 0.000E+00 0.197E+01 0.722E+00 0.186E+03 0.707E-02 0.986E-06 0.132E+01 0.139E+01 0.454E-10 0.954E-09 0.954E-09 0.954E-09 0.954E-09 0.191E-08 0.386E-01 0.120E-02 0.175E-02 .28142E-20 0.000E+00 0.158E+00 0.000E+00 0.000E+00 0.000E+00
BIGSUB    2        0    7.53442E+01 0.000E+00 0.000E+00 0.196E+01 0.714E+00 0.179E+03 0.886E-02 0.992E-06 0.136E+01 0.144E+01 0.839E-10 0.962E-09 0.962E-09 0.962E-09 0.962E-09 0.192E-08 0.372E-01 0.875E-03 0.137E-02 .36674E-20 0.000E+00 0.163E+00 0.000E+00 0.000E+00 0.000E+00
BIGSUB    3        0    7.78363E+01 0.000E+00 0.000E+00 0.194E+01 0.688E+00 0.185E+03 0.174E-01 0.992E-06 0.128E+01 0.136E+01 0.585E-10 0.981E-09 0.981E-09 0.981E-09 0.981E-09 0.196E-08 0.375E-01 0.623E-03 0.400E-03 .12930E-21 0.000E+00 0.158E+00 0.000E+00 0.000E+00 0.000E+00
BIGSUB    1        0    8.87822E+01 0.000E+00 0.000E+00 0.291E+01 0.997E+00 0.185E+03 0.391E-02 0.986E-06 0.132E+01 0.139E+01 0.454E-10 0.954E-09 0.954E-09 0.954E-09 0.954E-09 0.191E-08 0.283E-01 0.859E-03 0.175E-02 .41624E-20 0.000E+00 0.146E+00 0.000E+00 0.000E+00 0.000E+00
BIGSUB    2        0    8.53442E+01 0.000E+00 0.000E+00 0.291E+01 0.990E+00 0.178E+03 0.490E-02 0.992E-06 0.136E+01 0.143E+01 0.839E-10 0.962E-09 0.962E-09 0.962E-09 0.962E-09 0.192E-08 0.276E-01 0.638E-03 0.137E-02 .61002E-20 0.000E+00 0.150E+00 0.000E+00 0.000E+00 0.000E+00
BIGSUB    3        0    8.78363E+01 0.000E+00 0.000E+00 0.289E+01 0.965E+00 0.185E+03 0.963E-02 0.992E-06 0.129E+01 0.135E+01 0.585E-10 0.981E-09 0.981E-09 0.981E-09 0.981E-09 0.196E-08 0.282E-01 0.451E-03 0.402E-03 .10885E-21 0.000E+00 0.145E+00 0.000E+00 0.000E+00 0.000E+00
BIGSUB    1        0    9.87822E+01 0.000E+00 0.000E+00 0.286E+01 0.917E+00 0.184E+03 0.216E-02 0.986E-06 0.132E+01 0.139E+01 0.454E-10 0.954E-09 0.954E-09 0.954E-09 0.954E-09 0.191E-08 0.210E-01 0.616E-03 0.174E-02 .57721E-20 0.000E+00 0.135E+00 0.000E+00 0.000E+00 0.000E+00
BIGSUB    2        0    9.53442E+01 0.000E+00 0.000E+00 0.286E+01 0.916E+00 0.177E+03 0.271E-02 0.992E-06 0.136E+01 0.143E+01 0.839E-10 0.962E-09 0.962E-09 0.962E-09 0.962E-09 0.192E-08 0.206E-01 0.469E-03 0.136E-02 .95815E-20 0.000E+00 0.140E+00 0.000E+00 0.000E+00 0.000E+00
BIGSUB    3        0    9.78363E+01 0.000E+00 0.000E+00 0.284E+01 0.879E+00 0.184E+03 0.532E-02 0.992E-06 0.129E+01 0.135E+01 0.585E-10 0.981E-09 0.981E-09 0.981E-09 0.981E-09 0.196E-08 0.214E-01 0.329E-03 0.402E-03 .96295E-22 0.000E+00 0.135E+00 0.000E+00 0.000E+00 0.000E+00
BIGSUB    1        0   10.87822E+01 0.000E+00 0.000E+00 0.238E+01 0.708E+00 0.183E+03 0.120E-02 0.986E-06 0.132E+01 0.138E+01 0.454E-10 0.954E-09 0.954E-09 0.954E-09 0.954E-09 0.191E-08 0.157E-01 0.443E-03 0.172E-02 .75005E-20 0.000E+00 0.138E+00 0.000E+00 0.000E+00 0.000E+00
BIGSUB    2        0   10.53442E+01 0.000E+00 0.000E+00 0.238E+01 0.711E+00 0.176E+03 0.150E-02 0.992E-06 0.136E+01 0.142E+01 0.839E-10 0.962E-09 0.962E-09 0.962E-09 0.962E-09 0.192E-08 0.156E-01 0.347E-03 0.134E-02 .14075E-19 0.000E+00 0.143E+00 0.000E+00 0.000E+00 0.000E+00
BIGSUB    3        0   10.78363E+01 0.000E+00 0.000E+00 0.238E+01 0.688E+00 0.183E+03 0.295E-02 0.992E-06 0.129E+01 0.135E+01 0.585E-10 0.981E-09 0.981E-09 0.981E-09 0.981E-09 0.196E-08 0.165E-01 0.242E-03 0.399E-03 .88141E-22 0.000E+00 0.138E+00 0.000E+00 0.000E+00 0.000E+00
BIGSUB    1        0   11.87822E+01 0.000E+00 0.000E+00 0.272E+01 0.776E+00 0.182E+03 0.662E-03 0.986E-06 0.132E+01 0.137E+01 0.454E-10 0.954E-09 0.954E-09 0.954E-09 0.954E-09 0.191E-08 0.119E-01 0.321E-03 0.169E-02 .91722E-20 0.000E+00 0.154E+00 0.000E+00 0.000E+00 0.000E+00
BIGSUB    2        0   11.53442E+01 0.000E+00 0.000E+00 0.272E+01 0.781E+00 0.176E+03 0.830E-03 0.992E-06 0.136E+01 0.141E+01 0.839E-10 0.962E-09 0.962E-09 0.962E-09 0.962E-09 0.192E-08 0.119E-01 0.260E-03 0.132E-02 .19243E-19 0.000E+00 0.159E+00 0.000E+00 0.000E+00 0.000E+00
BIGSUB    3        0   11.78363E+01 0.000E+00 0.000E+00 0.270E+01 0.748E+00 0.182E+03 0.163E-02 0.992E-06 0.129E+01 0.134E+01 0.585E-10 0.981E-09 0.981E-09 0.981E-09 0.981E-09 0.196E-08 0.129E-01 0.179E-03 0.395E-03 .82632E-22 0.000E+00 0.154E+00 0.000E+00 0.000E+00 0.000E+00
BIGSUB    1        0   12.87822E+01 0.000E+00 0.000E+00 0.227E+01 0.597E+00 0.182E+03 0.366E-03 0.986E-06 0.132E+01 0.137E+01 0.454E-10 0.954E-09 0.954E-09 0.954E-09 0.954E-09 0.191E-08 0.912E-02 0.233E-03 0.166E-02 .10637E-19 0.000E+00 0.158E+00 0.000E+00 0.000E+00 0.000E+00
BIGSUB    2        0   12.53442E+01 0.000E+00 0.000E+00 0.227E+01 0.603E+00 0.175E+03 0.460E-03 0.992E-06 0.136E+01 0.141E+01 0.839E-10 0.962E-09 0.962E-09 0.962E-09 0.962E-09 0.192E-08 0.925E-02 0.196E-03 0.129E-02 .24505E-19 0.000E+00 0.163E+00 0.000E+00 0.000E+00 0.000E+00
BIGSUB    3        0   12.78363E+01 0.000E+00 0.000E+00 0.229E+01 0.596E+00 0.182E+03 0.902E-03 0.992E-06 0.129E+01 0.134E+01 0.585E-10 0.981E-09 0.981E-09 0.981E-09 0.981E-09 0.196E-08 0.102E-01 0.134E-03 0.389E-03 .78826E-22 0.000E+00 0.158E+00 0.000E+00 0.000E+00 0.000E+00
BIGSUB    1        0   13.87822E+01 0.000E+00 0.000E+00 0.162E+01 0.418E+00 0.181E+03 0.202E-03 0.986E-06 0.131E+01 0.136E+01 0.454E-10 0.954E-09 0.954E-09 0.954E-09 0.954E-09 0.191E-08 0.710E-02 0.171E-03 0.163E-02 .11807E-19 0.000E+00 0.151E+00 0.000E+00 0.000E+00 0.000E+00
BIGSUB    2        0   13.53442E+01 0.000E+00 0.000E+00 0.162E+01 0.422E+00 0.175E+03 0.254E-03 0.992E-06 0.135E+01 0.140E+01 0.839E-10 0.962E-09 0.962E-09 0.962E-09 0.962E-09 0.192E-08 0.728E-02 0.150E-03 0.127E-02 .29241E-19 0.000E+00 0.156E+00 0.000E+00 0.000E+00 0.000E+00
BIGSUB    3        0   13.78363E+01 0.000E+00 0.000E+00 0.162E+01 0.409E+00 0.181E+03 0.499E-03 0.992E-06 0.129E+01 0.133E+01 0.585E-10 0.981E-09 0.981E-09 0.981E-09 0.981E-09 0.196E-08 0.825E-02 0.102E-03 0.382E-03 .76180E-22 0.000E+00 0.151E+00 0.000E+00 0.000E+00 0.000E+00
BIGSUB    1        0   14.87822E+01 0.000E+00 0.000E+00 0.240E+01 0.627E+00 0.181E+03 0.112E-03 0.986E-06 0.131E+01 0.135E+01 0.454E-10 0.954E-09 0.954E-09 0.954E-09 0.954E-09 0.191E-08 0.561E-02 0.126E-03 0.159E-02 .12664E-19 0.000E+00 0.147E+00 0.000E+00 0.000E+00 0.000E+00
BIGSUB    2        0   14.53442E+01 0.000E+00 0.000E+00 0.240E+01 0.632E+00 0.174E+03 0.141E-03 0.992E-06 0.134E+01 0.139E+01 0.839E-10 0.962E-09 0.962E-09 0.962E-09 0.962E-09 0.192E-08 0.581E-02 0.117E-03 0.123E-02 .33009E-19 0.000E+00 0.151E+00 0.000E+00 0.000E+00 0.000E+00
BIGSUB    3        0   14.78363E+01 0.000E+00 0.000E+00 0.238E+01 0.591E+00 0.181E+03 0.276E-03 0.992E-06 0.128E+01 0.133E+01 0.585E-10 0.981E-09 0.981E-09 0.981E-09 0.981E-09 0.196E-08 0.675E-02 0.780E-04 0.374E-03 .74365E-22 0.000E+00 0.147E+00 0.000E+00 0.000E+00 0.000E+00
BIGSUB    1        0   15.87822E+01 0.000E+00 0.000E+00 0.254E+01 0.638E+00 0.180E+03 0.620E-04 0.986E-06 0.130E+01 0.134E+01 0.454E-10 0.954E-09 0.954E-09 0.954E-09 0.954E-09 0.191E-08 0.451E-02 0.943E-04 0.154E-02 .13236E-19 0.000E+00 0.148E+00 0.000E+00 0.000E+00 0.000E+00
BIGSUB    2        0   15.53442E+01 0.000E+00 0.000E+00 0.254E+01 0.644E+00 0.173E+03 0.779E-04 0.992E-06 0.133E+01 0.138E+01 0.839E-10 0.962E-09 0.962E-09 0.962E-09 0.962E-09 0.192E-08 0.470E-02 0.920E-04 0.120E-02 .35643E-19 0.000E+00 0.152E+00 0.000E+00 0.000E+00 0.000E+00
BIGSUB    3        0   15.78363E+01 0.000E+00 0.000E+00 0.252E+01 0.604E+00 0.180E+03 0.153E-03 0.992E-06 0.127E+01 0.132E+01 0.585E-10 0.981E-09 0.981E-09 0.981E-09 0.981E-09 0.196E-08 0.559E-02 0.607E-04 0.365E-03 .73175E-22 0.000E+00 0.148E+00 0.000E+00 0.000E+00 0.000E+00
BIGSUB    1        0   16.87822E+01 0.150E+01 0.000E+00 0.224E+01 0.110E+01 0.181E+03 0.343E-04 0.696E-04 0.129E+01 0.134E+01 0.454E-10 0.954E-09 0.954E-09 0.382E-05 0.225E-07 0.191E-08 0.693E-02 0.240E-03 0.150E-02 .14928E-11 0.000E+00 0.144E+00 0.000E+00 0.000E+00 0.000E+00
BIGSUB    2        0   16.53442E+01 0.100E+01 0.000E+00 0.224E+01 0.107E+01 0.173E+03 0.431E-04 0.992E-06 0.132E+01 0.137E+01 0.839E-10 0.962E-09 0.962E-09 0.962E-09 0.962E-09 0.192E-08 0.524E-02 0.146E-03 0.117E-02 .22222E-19 0.000E+00 0.147E+00 0.000E+00 0.000E+00 0.000E+00
BIGSUB    3        0   16.78363E+01 0.130E+01 0.000E+00 0.223E+01 0.111E+01 0.180E+03 0.845E-04 0.939E-05 0.126E+01 0.131E+01 0.585E-10 0.981E-09 0.981E-09 0.534E-06 0.363E-08 0.196E-08 0.736E-02 0.166E-03 0.356E-03 .24632E-13 0.000E+00 0.144E+00 0.000E+00 0.000E+00 0.000E+00
BIGSUB    1        0   17.87822E+01 0.300E+00 0.000E+00 0.224E+01 0.878E+00 0.180E+03 0.190E-04 0.109E-05 0.128E+01 0.133E+01 0.454E-10 0.954E-09 0.954E-09 0.785E-08 0.976E-09 0.191E-08 0.535E-02 0.174E-03 0.145E-02 .47847E-19 0.000E+00 0.154E+00 0.000E+00 0.000E+00 0.000E+00
BIGSUB    2        0   17.53442E+01 0.000E+00 0.000E+00 0.224E+01 0.649E+00 0.173E+03 0.239E-04 0.992E-06 0.131E+01 0.136E+01 0.839E-10 0.962E-09 0.962E-09 0.962E-09 0.962E-09 0.192E-08 0.419E-02 0.111E-03 0.113E-02 .25909E-19 0.000E+00 0.159E+00 0.000E+00 0.000E+00 0.000E+00
BIGSUB    3        0   17.78363E+01 0.000E+00 0.000E+00 0.222E+01 0.628E+00 0.180E+03 0.467E-04 0.998E-06 0.125E+01 0.130E+01 0.585E-10 0.981E-09 0.981E-09 0.179E-08 0.982E-09 0.196E-08 0.588E-02 0.122E-03 0.345E-03 .59337E-21 0.000E+00 0.155E+00 0.000E+00 0.000E+00 0.000E+00
BIGSUB    1        0   18.87822E+01 0.000E+00 0.000E+00 0.195E+01 0.555E+00 0.180E+03 0.105E-04 0.986E-06 0.127E+01 0.131E+01 0.454E-10 0.954E-09 0.954E-09 0.962E-09 0.954E-09 0.191E-08 0.419E-02 0.127E-03 0.140E-02 .98192E-20 0.000E+00 0.163E+00 0.000E+00 0.000E+00 0.000E+00
BIGSUB    2        0   18.53442E+01 0.000E+00 0.000E+00 0.195E+01 0.495E+00 0.172E+03 0.132E-04 0.992E-06 0.130E+01 0.135E+01 0.839E-10 0.962E-09 0.962E-09 0.962E-09 0.962E-09 0.192E-08 0.340E-02 0.855E-04 0.109E-02 .28799E-19 0.000E+00 0.168E+00 0.000E+00 0.000E+00 0.000E+00
BIGSUB    3        0   18.78363E+01 0.000E+00 0.000E+00 0.193E+01 0.472E+00 0.179E+03 0.259E-04 0.992E-06 0.124E+01 0.129E+01 0.585E-10 0.981E-09 0.981E-09 0.982E-09 0.981E-09 0.196E-08 0.478E-02 0.903E-04 0.335E-03 .71900E-22 0.000E+00 0.164E+00 0.000E+00 0.000E+00 0.000E+00
BIGSUB    1        0   19.87822E+01 0.000E+00 0.000E+00 0.273E+01 0.677E+00 0.179E+03 0.581E-05 0.986E-06 0.125E+01 0.130E+01 0.454E-10 0.954E-09 0.954E-09 0.954E-09 0.954E-09 0.191E-08 0.333E-02 0.929E-04 0.136E-02 .10757E-19 0.000E+00 0.148E+00 0.000E+00 0.000E+00 0.000E+00
BIGSUB    2        0   19.53442E+01 0.000E+00 0.000E+00 0.273E+01 0.642E+00 0.172E+03 0.730E-05 0.992E-06 0.129E+01 0.133E+01 0.839E-10 0.962E-09 0.962E-09 0.962E-09 0.962E-09 0.192E-08 0.279E-02 0.667E-04 0.105E-02 .30833E-19 0.000E+00 0.152E+00 0.000E+00 0.000E+00 0.000E+00
BIGSUB    3        0   19.78363E+01 0.000E+00 0.000E+00 0.272E+01 0.614E+00 0.179E+03 0.143E-04 0.992E-06 0.123E+01 0.128E+01 0.585E-10 0.981E-09 0.981E-09 0.981E-09 0.981E-09 0.196E-08 0.394E-02 0.676E-04 0.324E-03 .72274E-22 0.000E+00 0.148E+00 0.000E+00 0.000E+00 0.000E+00
BIGSUB    1        0   20.87822E+01 0.000E+00 0.000E+00 0.290E+01 0.676E+00 0.178E+03 0.321E-05 0.986E-06 0.124E+01 0.128E+01 0.454E-10 0.954E-09 0.954E-09 0.954E-09 0.954E-09 0.191E-08 0.270E-02 0.689E-04 0.131E-02 .11453E-19 0.000E+00 0.134E+00 0.000E+00 0.000E+00 0.000E+00
BIGSUB    2        0   20.53442E+01 0.000E+00 0.000E+00 0.290E+01 0.658E+00 0.171E+03 0.404E-05 0.992E-06 0.127E+01 0.132E+01 0.839E-10 0.962E-09 0.962E-09 0.962E-09 0.962E-09 0.192E-08 0.233E-02 0.528E-04 0.102E-02 .32092E-19 0.000E+00 0.137E+00 0.000E+00 0.000E+00 0.000E+00
BIGSUB    3        0   20.78363E+01 0.000E+00 0.000E+00 0.288E+01 0.622E+00 0.178E+03 0.791E-05 0.992E-06 0.122E+01 0.126E+01 0.585E-10 0.981E-09 0.981E-09 0.981E-09 0.981E-09 0.196E-08 0.329E-02 0.513E-04 0.313E-03 .72894E-22 0.000E+00 0.134E+00 0.000E+00 0.000E+00 0.000E+00
BIGSUB    1        0   21.87822E+01 0.000E+00 0.000E+00 0.159E+01 0.363E+00 0.178E+03 0.178E-05 0.986E-06 0.122E+01 0.127E+01 0.454E-10 0.954E-09 0.954E-09 0.954E-09 0.954E-09 0.191E-08 0.221E-02 0.516E-04 0.126E-02 .11938E-19 0.000E+00 0.120E+00 0.000E+00 0.000E+00 0.000E+00
BIGSUB    2        0   21.53442E+01 0.000E+00 0.000E+00 0.159E+01 0.355E+00 0.171E+03 0.224E-05 0.992E-06 0.126E+01 0.130E+01 0.839E-10 0.962E-09 0.962E-09 0.962E-09 0.962E-09 0.192E-08 0.196E-02 0.423E-04 0.977E-03 .32730E-19 0.000E+00 0.124E+00 0.000E+00 0.000E+00 0.000E+00
BIGSUB    3        0   21.78363E+01 0.000E+00 0.000E+00 0.157E+01 0.328E+00 0.178E+03 0.438E-05 0.992E-06 0.120E+01 0.125E+01 0.585E-10 0.981E-09 0.981E-09 0.981E-09 0.981E-09 0.196E-08 0.279E-02 0.394E-04 0.302E-03 .73720E-22 0.000E+00 0.121E+00 0.000E+00 0.000E+00 0.000E+00
BIGSUB    1        0   22.87822E+01 0.150E+01 0.000E+00 0.682E+00 0.443E+00 0.179E+03 0.984E-06 0.696E-04 0.121E+01 0.126E+01 0.454E-10 0.954E-09 0.954E-09 0.393E-05 0.222E-07 0.191E-08 0.510E-02 0.208E-03 0.121E-02 .17096E-11 0.000E+00 0.124E+00 0.000E+00 0.000E+00 0.000E+00
BIGSUB    2        0   22.53442E+01 0.130E+01 0.000E+00 0.680E+00 0.435E+00 0.172E+03 0.124E-05 0.195E-04 0.124E+01 0.129E+01 0.839E-10 0.962E-09 0.962E-09 0.136E-05 0.624E-08 0.192E-08 0.418E-02 0.178E-03 0.940E-03 .72509E-13 0.000E+00 0.127E+00 0.000E+00 0.000E+00 0.000E+00
BIGSUB    3        0   22.78363E+01 0.150E+01 0.000E+00 0.652E+00 0.419E+00 0.179E+03 0.242E-05 0.261E-04 0.119E+01 0.124E+01 0.585E-10 0.981E-09 0.981E-09 0.164E-05 0.880E-08 0.196E-08 0.587E-02 0.187E-03 0.291E-03 .74706E-12 0.000E+00 0.125E+00 0.000E+00 0.000E+00 0.000E+00
BIGSUB    1        0   23.87822E+01 0.300E+00 0.300E+00 0.253E+01 0.111E+01 0.178E+03 0.544E-06 0.109E-05 0.119E+01 0.124E+01 0.454E-10 0.954E-09 0.954E-09 0.817E-08 0.976E-09 0.191E-08 0.399E-02 0.153E-03 0.116E-02 .60877E-19 0.000E+00 0.153E+00 0.000E+00 0.000E+00 0.000E+00
BIGSUB    2        0   23.53442E+01 0.000E+00 0.000E+00 0.253E+01 0.871E+00 0.171E+03 0.685E-06 0.100E-05 0.122E+01 0.127E+01 0.839E-10 0.962E-09 0.962E-09 0.217E-08 0.963E-09 0.192E-08 0.322E-02 0.130E-03 0.902E-03 .17636E-19 0.000E+00 0.157E+00 0.000E+00 0.000E+00 0.000E+00
BIGSUB    3        0   23.78363E+01 0.000E+00 0.000E+00 0.252E+01 0.885E+00 0.178E+03 0.134E-05 0.102E-05 0.117E+01 0.122E+01 0.585E-10 0.981E-09 0.981E-09 0.358E-08 0.986E-09 0.196E-08 0.454E-02 0.135E-03 0.279E-03 .19174E-19 0.000E+00 0.154E+00 0.000E+00 0.000E+00 0.000E+00
BIGSUB    1        0   24.87822E+01 0.000E+00 0.000E+00 0.186E+01 0.519E+00 0.178E+03 0.301E-06 0.986E-06 0.118E+01 0.122E+01 0.454E-10 0.954E-09 0.954E-09 0.964E-09 0.954E-09 0.191E-08 0.306E-02 0.110E-03 0.111E-02 .90642E-20 0.000E+00 0.160E+00 0.000E+00 0.000E+00 0.000E+00
BIGSUB    2        0   24.53442E+01 0.000E+00 0.000E+00 0.186E+01 0.473E+00 0.170E+03 0.379E-06 0.992E-06 0.121E+01 0.125E+01 0.839E-10 0.962E-09 0.962E-09 0.965E-09 0.962E-09 0.192E-08 0.251E-02 0.960E-04 0.865E-03 .20005E-19 0.000E+00 0.165E+00 0.000E+00 0.000E+00 0.000E+00
BIGSUB    3        0   24.78363E+01 0.000E+00 0.000E+00 0.184E+01 0.456E+00 0.177E+03 0.741E-06 0.992E-06 0.116E+01 0.120E+01 0.585E-10 0.981E-09 0.981E-09 0.986E-09 0.981E-09 0.196E-08 0.356E-02 0.977E-04 0.268E-03 .77083E-22 0.000E+00 0.161E+00 0.000E+00 0.000E+00 0.000E+00
BIGSUB    1        0   25.87822E+01 0.000E+00 0.000E+00 0.104E+01 0.263E+00 0.178E+03 0.117E-06 0.986E-06 0.116E+01 0.121E+01 0.454E-10 0.954E-09 0.954E-09 0.954E-09 0.954E-09 0.191E-08 0.238E-02 0.801E-04 0.107E-02 .99405E-20 0.000E+00 0.147E+00 0.000E+00 0.000E+00 0.000E+00
BIGSUB    2        0   25.53442E+01 0.000E+00 0.000E+00 0.104E+01 0.248E+00 0.170E+03 0.873E-07 0.992E-06 0.119E+01 0.124E+01 0.839E-10 0.962E-09 0.962E-09 0.962E-09 0.962E-09 0.192E-08 0.199E-02 0.714E-04 0.829E-03 .22522E-19 0.000E+00 0.151E+00 0.000E+00 0.000E+00 0.000E+00
BIGSUB    3        0   25.78363E+01 0.000E+00 0.000E+00 0.102E+01 0.231E+00 0.177E+03 0.000E+00 0.992E-06 0.114E+01 0.119E+01 0.585E-10 0.981E-09 0.981E-09 0.981E-09 0.981E-09 0.196E-08 0.284E-02 0.714E-04 0.258E-03 .78624E-22 0.000E+00 0.148E+00 0.000E+00 0.000E+00 0.000E+00
BIGSUB    1        0   26.87822E+01 0.000E+00 0.000E+00 0.209E+01 0.476E+00 0.177E+03 0.000E+00 0.986E-06 0.114E+01 0.119E+01 0.454E-10 0.954E-09 0.954E-09 0.954E-09 0.954E-09 0.191E-08 0.188E-02 0.586E-04 0.102E-02 .10614E-19 0.000E+00 0.131E+00 0.000E+00 0.000E+00 0.000E+00
BIGSUB    2        0   26.53442E+01 0.000E+00 0.000E+00 0.209E+01 0.458E+00 0.170E+03 0.000E+00 0.992E-06 0.117E+01 0.122E+01 0.839E-10 0.962E-09 0.962E-09 0.962E-09 0.962E-09 0.192E-08 0.160E-02 0.537E-04 0.793E-03 .24460E-19 0.000E+00 0.135E+00 0.000E+00 0.000E+00 0.000E+00
BIGSUB    3        0   26.78363E+01 0.000E+00 0.000E+00 0.207E+01 0.435E+00 0.177E+03 0.000E+00 0.992E-06 0.113E+01 0.117E+01 0.585E-10 0.981E-09 0.981E-09 0.981E-09 0.981E-09 0.196E-08 0.230E-02 0.526E-04 0.247E-03 .80445E-22 0.000E+00 0.132E+00 0.000E+00 0.000E+00 0.000E+00
BIGSUB    1        0   27.87822E+01 0.000E+00 0.000E+00 0.227E+01 0.500E+00 0.177E+03 0.000E+00 0.986E-06 0.113E+01 0.117E+01 0.454E-10 0.954E-09 0.954E-09 0.954E-09 0.954E-09 0.191E-08 0.151E-02 0.432E-04 0.977E-03 .11109E-19 0.000E+00 0.134E+00 0.000E+00 0.000E+00 0.000E+00
BIGSUB    2        0   27.53442E+01 0.000E+00 0.000E+00 0.227E+01 0.486E+00 0.169E+03 0.000E+00 0.992E-06 0.115E+01 0.120E+01 0.839E-10 0.962E-09 0.962E-09 0.962E-09 0.962E-09 0.192E-08 0.130E-02 0.409E-04 0.759E-03 .25845E-19 0.000E+00 0.137E+00 0.000E+00 0.000E+00 0.000E+00
BIGSUB    3        0   27.78363E+01 0.000E+00 0.000E+00 0.224E+01 0.454E+00 0.176E+03 0.000E+00 0.992E-06 0.111E+01 0.115E+01 0.585E-10 0.981E-09 0.981E-09 0.981E-09 0.981E-09 0.196E-08 0.189E-02 0.391E-04 0.236E-03 .82419E-22 0.000E+00 0.135E+00 0.000E+00 0.000E+00 0.000E+00
BIGSUB    1        0   28.87822E+01 0.000E+00 0.000E+00 0.234E+01 0.504E+00 0.176E+03 0.000E+00 0.986E-06 0.111E+01 0.115E+01 0.454E-10 0.954E-09 0.954E-09 0.954E-09 0.954E-09 0.191E-08 0.123E-02 0.321E-04 0.933E-03 .11459E-19 0.000E+00 0.127E+00 0.000E+00 0.000E+00 0.000E+00
BIGSUB    2        0   28.53442E+01 0.000E+00 0.000E+00 0.234E+01 0.491E+00 0.169E+03 0.000E+00 0.992E-06 0.113E+01 0.118E+01 0.839E-10 0.962E-09 0.962E-09 0.962E-09 0.962E-09 0.192E-08 0.107E-02 0.316E-04 0.725E-03 .26760E-19 0.000E+00 0.130E+00 0.000E+00 0.000E+00 0.000E+00
BIGSUB    3        0   28.78363E+01 0.000E+00 0.000E+00 0.231E+01 0.454E+00 0.176E+03 0.000E+00 0.992E-06 0.109E+01 0.113E+01 0.585E-10 0.981E-09 0.981E-09 0.981E-09 0.981E-09 0.196E-08 0.158E-02 0.294E-04 0.226E-03 .84552E-22 0.000E+00 0.127E+00 0.000E+00 0.000E+00 0.000E+00
BIGSUB    1        0   29.87822E+01 0.000E+00 0.000E+00 0.385E+01 0.777E+00 0.176E+03 0.000E+00 0.986E-06 0.109E+01 0.113E+01 0.454E-10 0.954E-09 0.954E-09 0.954E-09 0.954E-09 0.191E-08 0.102E-02 0.242E-04 0.891E-03 .11697E-19 0.000E+00 0.110E+00 0.000E+00 0.000E+00 0.000E+00
BIGSUB    2        0   29.53442E+01 0.000E+00 0.000E+00 0.385E+01 0.761E+00 0.168E+03 0.000E+00 0.992E-06 0.112E+01 0.116E+01 0.839E-10 0.962E-09 0.962E-09 0.962E-09 0.962E-09 0.192E-08 0.898E-03 0.247E-04 0.692E-03 .27307E-19 0.000E+00 0.113E+00 0.000E+00 0.000E+00 0.000E+00
BIGSUB    3        0   29.78363E+01 0.000E+00 0.000E+00 0.384E+01 0.724E+00 0.175E+03 0.000E+00 0.992E-06 0.107E+01 0.112E+01 0.585E-10 0.981E-09 0.981E-09 0.981E-09 0.981E-09 0.196E-08 0.133E-02 0.224E-04 0.216E-03 .86851E-22 0.000E+00 0.111E+00 0.000E+00 0.000E+00 0.000E+00
BIGSUB    1        0   30.87822E+01 0.200E+01 0.000E+00 0.540E+00 0.345E+00 0.177E+03 0.000E+00 0.274E-03 0.107E+01 0.112E+01 0.407E-06 0.533E-06 0.761E-07 0.158E-04 0.840E-07 0.157E-06 0.599E-02 0.280E-03 0.850E-03 .13394E-09 0.203E-06 0.109E+00 0.000E+00 0.000E+00 0.000E+00
BIGSUB    2        0   30.53442E+01 0.180E+01 0.000E+00 0.539E+00 0.338E+00 0.170E+03 0.000E+00 0.144E-03 0.110E+01 0.115E+01 0.605E-06 0.131E-05 0.175E-06 0.109E-04 0.409E-07 0.201E-06 0.516E-02 0.263E-03 0.661E-03 .49023E-10 0.728E-06 0.111E+00 0.000E+00 0.000E+00 0.000E+00
BIGSUB    3        0   30.78363E+01 0.130E+01 0.000E+00 0.524E+00 0.325E+00 0.176E+03 0.000E+00 0.939E-05 0.106E+01 0.110E+01 0.585E-10 0.981E-09 0.981E-09 0.621E-06 0.355E-08 0.196E-08 0.380E-02 0.151E-03 0.206E-03 .39839E-13 0.000E+00 0.109E+00 0.000E+00 0.000E+00 0.000E+00
BIGSUB    1        0   31.87822E+01 0.000E+00 0.000E+00 0.151E+01 0.611E+00 0.177E+03 0.000E+00 0.146E-05 0.105E+01 0.110E+01 0.454E-10 0.190E-08 0.108E-08 0.303E-07 0.109E-08 0.216E-08 0.437E-02 0.200E-03 0.811E-03 .44735E-17 0.000E+00 0.109E+00 0.000E+00 0.000E+00 0.000E+00
BIGSUB    2        0   31.53442E+01 0.000E+00 0.000E+00 0.150E+01 0.597E+00 0.169E+03 0.000E+00 0.111E-05 0.108E+01 0.112E+01 0.839E-10 0.100E-08 0.963E-09 0.104E-07 0.994E-09 0.193E-08 0.378E-02 0.189E-03 0.630E-03 .39155E-18 0.000E+00 0.111E+00 0.000E+00 0.000E+00 0.000E+00
BIGSUB    3        0   31.78363E+01 0.000E+00 0.000E+00 0.146E+01 0.563E+00 0.176E+03 0.000E+00 0.998E-06 0.104E+01 0.108E+01 0.585E-10 0.981E-09 0.981E-09 0.199E-08 0.982E-09 0.196E-08 0.287E-02 0.108E-03 0.197E-03 .12270E-20 0.000E+00 0.109E+00 0.000E+00 0.000E+00 0.000E+00
BIGSUB    1        0   32.87822E+01 0.000E+00 0.000E+00 0.298E+01 0.787E+00 0.176E+03 0.000E+00 0.986E-06 0.103E+01 0.108E+01 0.454E-10 0.954E-09 0.954E-09 0.102E-08 0.954E-09 0.191E-08 0.321E-02 0.143E-03 0.773E-03 .73494E-20 0.000E+00 0.110E+00 0.000E+00 0.000E+00 0.000E+00
BIGSUB    2        0   32.53442E+01 0.000E+00 0.000E+00 0.298E+01 0.766E+00 0.169E+03 0.000E+00 0.992E-06 0.106E+01 0.110E+01 0.839E-10 0.962E-09 0.962E-09 0.988E-09 0.962E-09 0.192E-08 0.279E-02 0.136E-03 0.600E-03 .12941E-19 0.000E+00 0.112E+00 0.000E+00 0.000E+00 0.000E+00
BIGSUB    3        0   32.78363E+01 0.000E+00 0.000E+00 0.295E+01 0.721E+00 0.175E+03 0.000E+00 0.992E-06 0.102E+01 0.106E+01 0.585E-10 0.981E-09 0.981E-09 0.983E-09 0.981E-09 0.196E-08 0.220E-02 0.778E-04 0.188E-03 .94506E-22 0.000E+00 0.110E+00 0.000E+00 0.000E+00 0.000E+00
BIGSUB    1        0   33.87822E+01 0.000E+00 0.000E+00 0.243E+01 0.559E+00 0.176E+03 0.000E+00 0.986E-06 0.101E+01 0.106E+01 0.454E-10 0.954E-09 0.954E-09 0.954E-09 0.954E-09 0.191E-08 0.239E-02 0.102E-03 0.736E-03 .84039E-20 0.000E+00 0.106E+00 0.000E+00 0.000E+00 0.000E+00
BIGSUB    2        0   33.53442E+01 0.000E+00 0.000E+00 0.243E+01 0.539E+00 0.168E+03 0.000E+00 0.992E-06 0.104E+01 0.108E+01 0.839E-10 0.962E-09 0.962E-09 0.962E-09 0.962E-09 0.192E-08 0.207E-02 0.982E-04 0.572E-03 .15671E-19 0.000E+00 0.109E+00 0.000E+00 0.000E+00 0.000E+00
BIGSUB    3        0   33.78363E+01 0.000E+00 0.000E+00 0.239E+01 0.484E+00 0.175E+03 0.000E+00 0.992E-06 0.100E+01 0.104E+01 0.585E-10 0.981E-09 0.981E-09 0.981E-09 0.981E-09 0.196E-08 0.171E-02 0.562E-04 0.179E-03 .97559E-22 0.000E+00 0.107E+00 0.000E+00 0.000E+00 0.000E+00
BIGSUB    1        0   34.87822E+01 0.000E+00 0.000E+00 0.675E+00 0.157E+00 0.176E+03 0.000E+00 0.986E-06 0.996E+00 0.104E+01 0.454E-10 0.954E-09 0.954E-09 0.954E-09 0.954E-09 0.191E-08 0.179E-02 0.735E-04 0.701E-03 .92945E-20 0.000E+00 0.104E+00 0.000E+00 0.000E+00 0.000E+00
BIGSUB    2        0   34.53442E+01 0.000E+00 0.000E+00 0.674E+00 0.151E+00 0.168E+03 0.000E+00 0.992E-06 0.102E+01 0.106E+01 0.839E-10 0.962E-09 0.962E-09 0.962E-09 0.962E-09 0.192E-08 0.156E-02 0.715E-04 0.544E-03 .18113E-19 0.000E+00 0.107E+00 0.000E+00 0.000E+00 0.000E+00
BIGSUB    3        0   34.78363E+01 0.000E+00 0.000E+00 0.654E+00 0.130E+00 0.174E+03 0.000E+00 0.992E-06 0.983E+00 0.103E+01 0.585E-10 0.981E-09 0.981E-09 0.981E-09 0.981E-09 0.196E-08 0.135E-02 0.408E-04 0.171E-03 .10085E-21 0.000E+00 0.105E+00 0.000E+00 0.000E+00 0.000E+00
BIGSUB    1        0   35.87822E+01 0.150E+01 0.000E+00 0.255E+01 0.109E+01 0.176E+03 0.000E+00 0.696E-04 0.977E+00 0.102E+01 0.454E-10 0.954E-09 0.954E-09 0.349E-05 0.217E-07 0.191E-08 0.463E-02 0.196E-03 0.667E-03 .22218E-11 0.000E+00 0.103E+00 0.000E+00 0.000E+00 0.000E+00
BIGSUB    2        0   35.53442E+01 0.150E+01 0.000E+00 0.255E+01 0.107E+01 0.168E+03 0.000E+00 0.564E-04 0.999E+00 0.105E+01 0.208E-06 0.451E-06 0.606E-07 0.380E-05 0.164E-07 0.704E-07 0.446E-02 0.202E-03 0.518E-03 .31039E-11 0.106E-06 0.106E+00 0.000E+00 0.000E+00 0.000E+00
BIGSUB    3        0   35.78363E+01 0.130E+01 0.000E+00 0.252E+01 0.105E+01 0.175E+03 0.000E+00 0.939E-05 0.965E+00 0.101E+01 0.585E-10 0.981E-09 0.981E-09 0.609E-06 0.354E-08 0.196E-08 0.375E-02 0.159E-03 0.163E-03 .46308E-13 0.000E+00 0.104E+00 0.000E+00 0.000E+00 0.000E+00
BIGSUB    1        0   36.87822E+01 0.000E+00 0.000E+00 0.309E+01 0.757E+00 0.175E+03 0.000E+00 0.109E-05 0.958E+00 0.100E+01 0.454E-10 0.954E-09 0.954E-09 0.748E-08 0.975E-09 0.191E-08 0.336E-02 0.140E-03 0.634E-03 .86800E-19 0.000E+00 0.106E+00 0.000E+00 0.000E+00 0.000E+00
BIGSUB    2        0   36.53442E+01 0.000E+00 0.000E+00 0.309E+01 0.735E+00 0.168E+03 0.000E+00 0.103E-05 0.980E+00 0.103E+01 0.839E-10 0.972E-09 0.962E-09 0.407E-08 0.970E-09 0.192E-08 0.324E-02 0.145E-03 0.492E-03 .33424E-19 0.000E+00 0.109E+00 0.000E+00 0.000E+00 0.000E+00
BIGSUB    3        0   36.78363E+01 0.000E+00 0.000E+00 0.307E+01 0.671E+00 0.174E+03 0.000E+00 0.998E-06 0.946E+00 0.990E+00 0.585E-10 0.981E-09 0.981E-09 0.200E-08 0.982E-09 0.196E-08 0.277E-02 0.113E-03 0.155E-03 .16277E-20 0.000E+00 0.107E+00 0.000E+00 0.000E+00 0.000E+00
BIGSUB    1        0   37.87822E+01 0.165E+02 0.000E+00 0.125E+01 0.108E+01 0.188E+03 0.728E+00 0.157E+01 0.940E+00 0.265E+01 0.361E-01 0.610E-01 0.101E-01 0.376E-01 0.160E-02 0.176E-01 0.941E-01 0.215E-02 0.603E-03 .22421E-02 0.147E+01 0.142E+00 0.000E+00 0.000E+00 0.000E+00
BIGSUB    2        0   37.53442E+01 0.178E+02 0.000E+00 0.125E+01 0.106E+01 0.181E+03 0.990E+00 0.174E+01 0.962E+00 0.285E+01 0.388E-01 0.631E-01 0.101E-01 0.432E-01 0.164E-02 0.178E-01 0.103E+00 0.188E-02 0.469E-03 .26303E-02 0.161E+01 0.157E+00 0.000E+00 0.000E+00 0.000E+00
BIGSUB    3        0   37.78363E+01 0.208E+02 0.000E+00 0.126E+01 0.108E+01 0.189E+03 0.166E+01 0.282E+01 0.930E+00 0.392E+01 0.125E+00 0.147E+00 0.224E-01 0.538E-01 0.171E-02 0.330E-01 0.128E+00 0.246E-02 0.148E-03 .56808E-02 0.580E+01 0.175E+00 0.000E+00 0.000E+00 0.000E+00
BIGSUB    1        0   38.87822E+01 0.800E+00 0.000E+00 0.262E+00 0.225E+00 0.189E+03 0.295E-01 0.270E-01 0.922E+00 0.106E+01 0.454E-10 0.110E-02 0.184E-03 0.824E-03 0.344E-04 0.363E-03 0.680E-01 0.153E-02 0.573E-03 .72627E-06 0.000E+00 0.116E+00 0.000E+00 0.000E+00 0.000E+00
BIGSUB    2        0   38.53442E+01 0.500E+00 0.000E+00 0.262E+00 0.218E+00 0.182E+03 0.390E-01 0.163E-01 0.944E+00 0.108E+01 0.839E-10 0.626E-03 0.101E-03 0.504E-03 0.190E-04 0.200E-03 0.731E-01 0.133E-02 0.446E-03 .52067E-06 0.000E+00 0.119E+00 0.000E+00 0.000E+00 0.000E+00
BIGSUB    3        0   38.78363E+01 0.800E+00 0.000E+00 0.255E+00 0.221E+00 0.189E+03 0.145E+00 0.274E-01 0.914E+00 0.107E+01 0.585E-10 0.128E-02 0.198E-03 0.691E-03 0.185E-04 0.341E-03 0.928E-01 0.176E-02 0.142E-03 .50788E-06 0.000E+00 0.121E+00 0.000E+00 0.000E+00 0.000E+00
BIGSUB    1        0   39.87822E+01 0.000E+00 0.000E+00 0.194E+01 0.140E+01 0.187E+03 0.761E-02 0.777E-03 0.904E+00 0.996E+00 0.454E-10 0.319E-04 0.535E-05 0.243E-04 0.102E-05 0.106E-04 0.484E-01 0.108E-02 0.545E-03 .10330E-10 0.000E+00 0.108E+00 0.000E+00 0.000E+00 0.000E+00
BIGSUB    2        0   39.53442E+01 0.000E+00 0.000E+00 0.194E+01 0.134E+01 0.180E+03 0.108E-01 0.248E-03 0.926E+00 0.102E+01 0.839E-10 0.971E-05 0.161E-05 0.808E-05 0.311E-06 0.318E-05 0.521E-01 0.946E-03 0.424E-03 .12034E-11 0.000E+00 0.111E+00 0.000E+00 0.000E+00 0.000E+00
BIGSUB    3        0   39.78363E+01 0.000E+00 0.000E+00 0.192E+01 0.139E+01 0.188E+03 0.542E-01 0.485E-03 0.898E+00 0.101E+01 0.585E-10 0.226E-04 0.356E-05 0.130E-04 0.342E-06 0.619E-05 0.664E-01 0.125E-02 0.136E-03 .51809E-11 0.000E+00 0.112E+00 0.000E+00 0.000E+00 0.000E+00
BIGSUB    1        0   40.87822E+01 0.500E+00 0.000E+00 0.166E+01 0.121E+01 0.187E+03 0.353E-02 0.243E-04 0.887E+00 0.963E+00 0.454E-10 0.975E-06 0.164E-06 0.744E-06 0.318E-07 0.327E-06 0.345E-01 0.770E-03 0.517E-03 .31456E-15 0.000E+00 0.102E+00 0.000E+00 0.000E+00 0.000E+00
BIGSUB    2        0   40.53442E+01 0.800E+00 0.000E+00 0.165E+01 0.125E+01 0.180E+03 0.528E-02 0.489E-05 0.908E+00 0.989E+00 0.839E-10 0.168E-06 0.285E-07 0.142E-06 0.613E-08 0.566E-07 0.382E-01 0.687E-03 0.403E-03 .43284E-17 0.000E+00 0.104E+00 0.000E+00 0.000E+00 0.000E+00
BIGSUB    3        0   40.78363E+01 0.500E+00 0.000E+00 0.163E+01 0.117E+01 0.187E+03 0.263E-01 0.102E-04 0.882E+00 0.970E+00 0.585E-10 0.446E-06 0.711E-07 0.261E-06 0.750E-08 0.124E-06 0.476E-01 0.892E-03 0.130E-03 .48487E-16 0.000E+00 0.104E+00 0.000E+00 0.000E+00 0.000E+00
BIGSUB    1        0   41.87822E+01 0.430E+01 0.000E+00 0.239E+01 0.179E+01 0.188E+03 0.651E+00 0.492E-02 0.870E+00 0.973E+00 0.499E-04 0.141E-03 0.180E-04 0.198E-03 0.368E-05 0.268E-04 0.559E-01 0.153E-02 0.492E-03 .55159E-05 0.236E-02 0.985E-01 0.000E+00 0.000E+00 0.000E+00
BIGSUB    2        0   41.53442E+01 0.480E+01 0.000E+00 0.239E+01 0.177E+01 0.182E+03 0.121E+01 0.741E-02 0.892E+00 0.101E+01 0.130E-03 0.299E-03 0.370E-04 0.302E-03 0.464E-05 0.521E-04 0.654E-01 0.151E-02 0.385E-03 .89507E-05 0.403E-02 0.102E+00 0.000E+00 0.000E+00 0.000E+00
BIGSUB    3        0   41.78363E+01 0.690E+01 0.000E+00 0.235E+01 0.178E+01 0.189E+03 0.295E+01 0.673E-01 0.870E+00 0.108E+01 0.127E-02 0.197E-02 0.288E-03 0.169E-02 0.370E-04 0.397E-03 0.104E+00 0.262E-02 0.128E-03 .31791E-04 0.334E-01 0.108E+00 0.000E+00 0.000E+00 0.000E+00
BIGSUB    1        0   42.87822E+01 0.000E+00 0.000E+00 0.242E+01 0.125E+01 0.187E+03 0.385E-01 0.184E-04 0.853E+00 0.935E+00 0.454E-10 0.605E-06 0.835E-07 0.925E-06 0.161E-07 0.131E-06 0.399E-01 0.108E-02 0.467E-03 .22843E-10 0.000E+00 0.100E+00 0.000E+00 0.000E+00 0.000E+00
BIGSUB    2        0   42.53442E+01 0.000E+00 0.000E+00 0.242E+01 0.123E+01 0.180E+03 0.549E-01 0.243E-04 0.876E+00 0.965E+00 0.839E-10 0.104E-05 0.129E-06 0.130E-05 0.156E-07 0.194E-06 0.467E-01 0.107E-02 0.368E-03 .12896E-09 0.000E+00 0.104E+00 0.000E+00 0.000E+00 0.000E+00
BIGSUB    3        0   42.78363E+01 0.000E+00 0.000E+00 0.237E+01 0.120E+01 0.188E+03 0.248E+00 0.360E-03 0.858E+00 0.973E+00 0.585E-10 0.876E-05 0.124E-05 0.107E-04 0.202E-06 0.201E-05 0.745E-01 0.186E-02 0.126E-03 .18385E-10 0.000E+00 0.107E+00 0.000E+00 0.000E+00 0.000E+00
BIGSUB    1        0   43.87822E+01 0.000E+00 0.000E+00 0.328E+01 0.142E+01 0.186E+03 0.898E-02 0.104E-05 0.836E+00 0.907E+00 0.454E-10 0.412E-08 0.136E-08 0.577E-08 0.101E-08 0.254E-08 0.285E-01 0.769E-03 0.443E-03 .60793E-17 0.000E+00 0.917E-01 0.000E+00 0.000E+00 0.000E+00
BIGSUB    2        0   43.53442E+01 0.000E+00 0.000E+00 0.328E+01 0.140E+01 0.179E+03 0.128E-01 0.108E-05 0.859E+00 0.935E+00 0.839E-10 0.677E-08 0.164E-08 0.779E-08 0.101E-08 0.292E-08 0.334E-01 0.762E-03 0.351E-03 .42915E-16 0.000E+00 0.947E-01 0.000E+00 0.000E+00 0.000E+00
BIGSUB    3        0   43.78363E+01 0.000E+00 0.000E+00 0.324E+01 0.138E+01 0.186E+03 0.795E-01 0.514E-05 0.846E+00 0.939E+00 0.585E-10 0.986E-07 0.152E-07 0.144E-06 0.345E-08 0.262E-07 0.535E-01 0.133E-02 0.123E-03 .48449E-17 0.000E+00 0.971E-01 0.000E+00 0.000E+00 0.000E+00
BIGSUB    1        0   44.87822E+01 0.000E+00 0.000E+00 0.345E+01 0.131E+01 0.185E+03 0.402E-02 0.986E-06 0.820E+00 0.882E+00 0.454E-10 0.956E-09 0.954E-09 0.963E-09 0.954E-09 0.191E-08 0.204E-01 0.547E-03 0.421E-03 .39419E-20 0.000E+00 0.879E-01 0.000E+00 0.000E+00 0.000E+00
BIGSUB    2        0   44.53442E+01 0.000E+00 0.000E+00 0.344E+01 0.131E+01 0.178E+03 0.544E-02 0.992E-06 0.843E+00 0.909E+00 0.839E-10 0.975E-09 0.962E-09 0.986E-09 0.962E-09 0.192E-08 0.240E-01 0.544E-03 0.334E-03 .85021E-20 0.000E+00 0.908E-01 0.000E+00 0.000E+00 0.000E+00
BIGSUB    3        0   44.78363E+01 0.000E+00 0.000E+00 0.341E+01 0.127E+01 0.185E+03 0.362E-01 0.992E-06 0.833E+00 0.912E+00 0.585E-10 0.224E-08 0.981E-09 0.327E-08 0.981E-09 0.204E-08 0.387E-01 0.947E-03 0.120E-03 .40268E-21 0.000E+00 0.929E-01 0.000E+00 0.000E+00 0.000E+00
BIGSUB    1        0   45.87822E+01 0.000E+00 0.000E+00 0.351E+01 0.119E+01 0.183E+03 0.213E-02 0.986E-06 0.803E+00 0.859E+00 0.454E-10 0.954E-09 0.954E-09 0.954E-09 0.954E-09 0.191E-08 0.147E-01 0.390E-03 0.399E-03 .44556E-20 0.000E+00 0.844E-01 0.000E+00 0.000E+00 0.000E+00
BIGSUB    2        0   45.53442E+01 0.000E+00 0.000E+00 0.351E+01 0.120E+01 0.177E+03 0.290E-02 0.992E-06 0.827E+00 0.886E+00 0.839E-10 0.962E-09 0.962E-09 0.962E-09 0.962E-09 0.192E-08 0.173E-01 0.389E-03 0.318E-03 .46829E-20 0.000E+00 0.872E-01 0.000E+00 0.000E+00 0.000E+00
BIGSUB    3        0   45.78363E+01 0.000E+00 0.000E+00 0.350E+01 0.117E+01 0.184E+03 0.186E-01 0.992E-06 0.820E+00 0.888E+00 0.585E-10 0.981E-09 0.981E-09 0.981E-09 0.981E-09 0.196E-08 0.280E-01 0.678E-03 0.117E-03 .13359E-21 0.000E+00 0.892E-01 0.000E+00 0.000E+00 0.000E+00
BIGSUB    1        0   46.87822E+01 0.000E+00 0.000E+00 0.333E+01 0.105E+01 0.182E+03 0.116E-02 0.986E-06 0.787E+00 0.838E+00 0.454E-10 0.954E-09 0.954E-09 0.954E-09 0.954E-09 0.191E-08 0.106E-01 0.279E-03 0.378E-03 .57231E-20 0.000E+00 0.770E-01 0.000E+00 0.000E+00 0.000E+00
BIGSUB    2        0   46.53442E+01 0.000E+00 0.000E+00 0.333E+01 0.106E+01 0.176E+03 0.159E-02 0.992E-06 0.810E+00 0.865E+00 0.839E-10 0.962E-09 0.962E-09 0.962E-09 0.962E-09 0.192E-08 0.125E-01 0.279E-03 0.303E-03 .67479E-20 0.000E+00 0.796E-01 0.000E+00 0.000E+00 0.000E+00
BIGSUB    3        0   46.78363E+01 0.000E+00 0.000E+00 0.329E+01 0.101E+01 0.183E+03 0.102E-01 0.992E-06 0.807E+00 0.867E+00 0.585E-10 0.981E-09 0.981E-09 0.981E-09 0.981E-09 0.196E-08 0.205E-01 0.487E-03 0.113E-03 .14035E-21 0.000E+00 0.814E-01 0.000E+00 0.000E+00 0.000E+00
BIGSUB    1        0   47.87822E+01 0.305E+02 0.000E+00 0.312E+01 0.220E+01 0.189E+03 0.123E+02 0.790E+01 0.788E+00 0.899E+01 0.209E+00 0.324E+00 0.535E-01 0.820E-01 0.761E-02 0.101E+00 0.265E+00 0.100E-01 0.408E-03 .13734E-01 0.883E+01 0.264E+00 0.000E+00 0.000E+00 0.000E+00
BIGSUB    2        0   47.53442E+01 0.300E+02 0.000E+00 0.312E+01 0.217E+01 0.183E+03 0.127E+02 0.703E+01 0.812E+00 0.816E+01 0.110E+00 0.173E+00 0.276E-01 0.674E-01 0.620E-02 0.527E-01 0.268E+00 0.770E-02 0.326E-03 .80643E-02 0.509E+01 0.280E+00 0.000E+00 0.000E+00 0.000E+00
BIGSUB    3        0   47.78363E+01 0.302E+02 0.000E+00 0.317E+01 0.225E+01 0.190E+03 0.117E+02 0.760E+01 0.811E+00 0.872E+01 0.407E+00 0.435E+00 0.660E-01 0.583E-01 0.454E-02 0.104E+00 0.275E+00 0.732E-02 0.126E-03 .16678E-01 0.186E+02 0.270E+00 0.000E+00 0.000E+00 0.000E+00
BIGSUB    1        0   48.87822E+01 0.300E+00 0.000E+00 0.462E+00 0.298E+00 0.189E+03 0.634E+00 0.138E+00 0.788E+00 0.116E+01 0.454E-10 0.655E-02 0.109E-02 0.189E-02 0.164E-03 0.224E-02 0.189E+00 0.709E-02 0.431E-03 .23936E-04 0.000E+00 0.125E+00 0.000E+00 0.000E+00 0.000E+00
BIGSUB    2        0   48.53442E+01 0.300E+00 0.000E+00 0.461E+00 0.294E+00 0.182E+03 0.649E+00 0.660E-01 0.814E+00 0.111E+01 0.839E-10 0.179E-02 0.289E-03 0.825E-03 0.711E-04 0.601E-03 0.192E+00 0.548E-02 0.344E-03 .36763E-05 0.000E+00 0.121E+00 0.000E+00 0.000E+00 0.000E+00
BIGSUB    3        0   48.78363E+01 0.000E+00 0.000E+00 0.445E+00 0.225E+00 0.189E+03 0.117E+01 0.736E-01 0.814E+00 0.112E+01 0.585E-10 0.395E-02 0.606E-03 0.775E-03 0.476E-04 0.109E-02 0.197E+00 0.520E-02 0.137E-03 .59666E-05 0.000E+00 0.125E+00 0.000E+00 0.000E+00 0.000E+00
BIGSUB    1        0   49.87822E+01 0.000E+00 0.000E+00 0.131E+01 0.768E+00 0.188E+03 0.179E+00 0.398E-02 0.788E+00 0.967E+00 0.454E-10 0.193E-03 0.321E-04 0.564E-04 0.490E-05 0.664E-04 0.134E+00 0.502E-02 0.449E-03 .12551E-08 0.000E+00 0.104E+00 0.000E+00 0.000E+00 0.000E+00
BIGSUB    2        0   49.53442E+01 0.000E+00 0.000E+00 0.131E+01 0.761E+00 0.181E+03 0.179E+00 0.100E-02 0.814E+00 0.994E+00 0.839E-10 0.282E-04 0.464E-05 0.135E-04 0.117E-05 0.960E-05 0.137E+00 0.389E-02 0.359E-03 .28318E-10 0.000E+00 0.107E+00 0.000E+00 0.000E+00 0.000E+00
BIGSUB    3        0   49.78363E+01 0.000E+00 0.000E+00 0.128E+01 0.629E+00 0.188E+03 0.421E+00 0.131E-02 0.817E+00 0.999E+00 0.585E-10 0.708E-04 0.110E-04 0.146E-04 0.875E-06 0.200E-04 0.141E+00 0.370E-02 0.147E-03 .81960E-10 0.000E+00 0.110E+00 0.000E+00 0.000E+00 0.000E+00
BIGSUB    1        0   50.87822E+01 0.000E+00 0.000E+00 0.219E+01 0.108E+01 0.187E+03 0.767E-01 0.122E-03 0.787E+00 0.924E+00 0.454E-10 0.590E-05 0.986E-06 0.173E-05 0.151E-06 0.204E-05 0.957E-01 0.356E-02 0.461E-03 .41212E-13 0.000E+00 0.947E-01 0.000E+00 0.000E+00 0.000E+00
BIGSUB    2        0   50.53442E+01 0.000E+00 0.000E+00 0.219E+01 0.107E+01 0.180E+03 0.813E-01 0.179E-04 0.813E+00 0.953E+00 0.839E-10 0.490E-06 0.817E-07 0.239E-06 0.213E-07 0.169E-06 0.978E-01 0.277E-02 0.369E-03 .17157E-15 0.000E+00 0.979E-01 0.000E+00 0.000E+00 0.000E+00
BIGSUB    3        0   50.78363E+01 0.300E+00 0.000E+00 0.213E+01 0.114E+01 0.187E+03 0.194E+00 0.264E-04 0.818E+00 0.960E+00 0.585E-10 0.140E-05 0.220E-06 0.295E-06 0.181E-07 0.402E-06 0.101E+00 0.263E-02 0.154E-03 .79181E-15 0.000E+00 0.101E+00 0.000E+00 0.000E+00 0.000E+00
BIGSUB    1        0   51.87822E+01 0.000E+00 0.000E+00 0.123E+01 0.523E+00 0.186E+03 0.336E-01 0.433E-05 0.784E+00 0.894E+00 0.454E-10 0.182E-06 0.309E-07 0.539E-07 0.521E-08 0.639E-07 0.685E-01 0.253E-02 0.469E-03 .13064E-17 0.000E+00 0.881E-01 0.000E+00 0.000E+00 0.000E+00
BIGSUB    2        0   51.53442E+01 0.000E+00 0.000E+00 0.123E+01 0.523E+00 0.180E+03 0.397E-01 0.103E-05 0.811E+00 0.923E+00 0.839E-10 0.942E-08 0.215E-08 0.500E-08 0.108E-08 0.440E-08 0.702E-01 0.198E-02 0.375E-03 .32379E-20 0.000E+00 0.911E-01 0.000E+00 0.000E+00 0.000E+00
BIGSUB    3        0   51.78363E+01 0.000E+00 0.000E+00 0.121E+01 0.525E+00 0.186E+03 0.935E-01 0.123E-05 0.819E+00 0.932E+00 0.585E-10 0.292E-07 0.515E-08 0.669E-08 0.106E-08 0.954E-08 0.732E-01 0.188E-02 0.160E-03 .75376E-20 0.000E+00 0.939E-01 0.000E+00 0.000E+00 0.000E+00
BIGSUB    1        0   52.87822E+01 0.000E+00 0.000E+00 0.813E+00 0.332E+00 0.186E+03 0.153E-01 0.986E-06 0.781E+00 0.871E+00 0.454E-10 0.618E-08 0.151E-08 0.222E-08 0.954E-09 0.323E-08 0.491E-01 0.180E-02 0.472E-03 .37273E-20 0.000E+00 0.821E-01 0.000E+00 0.000E+00 0.000E+00
BIGSUB    2        0   52.53442E+01 0.000E+00 0.000E+00 0.810E+00 0.332E+00 0.179E+03 0.202E-01 0.992E-06 0.808E+00 0.901E+00 0.839E-10 0.962E-09 0.962E-09 0.962E-09 0.962E-09 0.192E-08 0.505E-01 0.141E-02 0.378E-03 .33732E-20 0.000E+00 0.850E-01 0.000E+00 0.000E+00 0.000E+00
BIGSUB    3        0   52.78363E+01 0.000E+00 0.000E+00 0.783E+00 0.314E+00 0.186E+03 0.467E-01 0.992E-06 0.818E+00 0.911E+00 0.585E-10 0.128E-08 0.981E-09 0.981E-09 0.981E-09 0.196E-08 0.531E-01 0.134E-02 0.164E-03 .15305E-21 0.000E+00 0.877E-01 0.000E+00 0.000E+00 0.000E+00
BIGSUB    1        0   53.87822E+01 0.224E+02 0.000E+00 0.113E+01 0.101E+01 0.191E+03 0.116E+02 0.422E+01 0.793E+00 0.531E+01 0.140E+00 0.205E+00 0.336E-01 0.534E-01 0.399E-02 0.643E-01 0.256E+00 0.955E-02 0.524E-03 .78637E-02 0.551E+01 0.167E+00 0.000E+00 0.000E+00 0.000E+00
BIGSUB    2        0   53.53442E+01 0.173E+02 0.000E+00 0.113E+01 0.999E+00 0.184E+03 0.919E+01 0.202E+01 0.817E+00 0.309E+01 0.442E-01 0.696E-01 0.110E-01 0.310E-01 0.178E-02 0.209E-01 0.211E+00 0.610E-02 0.409E-03 .26431E-02 0.184E+01 0.137E+00 0.000E+00 0.000E+00 0.000E+00
BIGSUB    3        0   53.78363E+01 0.191E+02 0.000E+00 0.113E+01 0.101E+01 0.191E+03 0.937E+01 0.280E+01 0.829E+00 0.390E+01 0.161E+00 0.171E+00 0.256E-01 0.312E-01 0.167E-02 0.402E-01 0.232E+00 0.619E-02 0.182E-03 .56363E-02 0.686E+01 0.149E+00 0.000E+00 0.000E+00 0.000E+00
BIGSUB    1        0   54.87822E+01 0.300E+00 0.000E+00 0.341E+01 0.216E+01 0.188E+03 0.636E+00 0.749E-01 0.804E+00 0.110E+01 0.454E-10 0.401E-02 0.662E-03 0.118E-02 0.858E-04 0.139E-02 0.183E+00 0.678E-02 0.567E-03 .58870E-05 0.000E+00 0.112E+00 0.000E+00 0.000E+00 0.000E+00
BIGSUB    2        0   54.53442E+01 0.500E+00 0.000E+00 0.340E+01 0.225E+01 0.181E+03 0.502E+00 0.193E-01 0.825E+00 0.104E+01 0.839E-10 0.713E-03 0.115E-03 0.361E-03 0.203E-04 0.240E-03 0.151E+00 0.435E-02 0.435E-03 .38236E-06 0.000E+00 0.105E+00 0.000E+00 0.000E+00 0.000E+00
BIGSUB    3        0   54.78363E+01 0.500E+00 0.000E+00 0.336E+01 0.226E+01 0.188E+03 0.926E+00 0.276E-01 0.840E+00 0.107E+01 0.585E-10 0.151E-02 0.229E-03 0.392E-03 0.176E-04 0.417E-03 0.166E+00 0.440E-02 0.198E-03 .45607E-06 0.000E+00 0.111E+00 0.000E+00 0.000E+00 0.000E+00
BIGSUB    1        0   55.87822E+01 0.000E+00 0.000E+00 0.273E+01 0.129E+01 0.187E+03 0.173E+00 0.216E-02 0.813E+00 0.987E+00 0.454E-10 0.117E-03 0.195E-04 0.349E-04 0.255E-05 0.411E-04 0.130E+00 0.481E-02 0.602E-03 .22052E-09 0.000E+00 0.980E-01 0.000E+00 0.000E+00 0.000E+00
BIGSUB    2        0   55.53442E+01 0.000E+00 0.000E+00 0.273E+01 0.131E+01 0.180E+03 0.133E+00 0.296E-03 0.831E+00 0.982E+00 0.839E-10 0.112E-04 0.184E-05 0.580E-05 0.333E-06 0.385E-05 0.108E+00 0.310E-02 0.456E-03 .11664E-11 0.000E+00 0.976E-01 0.000E+00 0.000E+00 0.000E+00
BIGSUB    3        0   55.78363E+01 0.000E+00 0.000E+00 0.267E+01 0.125E+01 0.187E+03 0.316E+00 0.493E-03 0.848E+00 0.101E+01 0.585E-10 0.267E-04 0.414E-05 0.731E-05 0.325E-06 0.762E-05 0.120E+00 0.313E-02 0.212E-03 .45562E-11 0.000E+00 0.102E+00 0.000E+00 0.000E+00 0.000E+00
BIGSUB    1        0   56.87822E+01 0.000E+00 0.000E+00 0.262E+01 0.107E+01 0.186E+03 0.711E-01 0.666E-04 0.820E+00 0.955E+00 0.454E-10 0.359E-05 0.597E-06 0.107E-05 0.789E-07 0.126E-05 0.933E-01 0.341E-02 0.629E-03 .70201E-14 0.000E+00 0.899E-01 0.000E+00 0.000E+00 0.000E+00
BIGSUB    2        0   56.53442E+01 0.000E+00 0.000E+00 0.261E+01 0.107E+01 0.179E+03 0.581E-01 0.573E-05 0.836E+00 0.956E+00 0.839E-10 0.194E-06 0.326E-07 0.102E-06 0.652E-08 0.684E-07 0.777E-01 0.221E-02 0.471E-03 .61471E-17 0.000E+00 0.901E-01 0.000E+00 0.000E+00 0.000E+00
BIGSUB    3        0   56.78363E+01 0.000E+00 0.000E+00 0.257E+01 0.102E+01 0.186E+03 0.141E+00 0.104E-04 0.856E+00 0.983E+00 0.585E-10 0.526E-06 0.827E-07 0.147E-06 0.716E-08 0.153E-06 0.866E-01 0.224E-02 0.222E-03 .42389E-16 0.000E+00 0.946E-01 0.000E+00 0.000E+00 0.000E+00
BIGSUB    1        0   57.87822E+01 0.860E+01 0.000E+00 0.167E+01 0.141E+01 0.190E+03 0.296E+01 0.205E+00 0.830E+00 0.121E+01 0.254E-02 0.454E-02 0.725E-03 0.534E-02 0.181E-03 0.124E-02 0.138E+00 0.461E-02 0.662E-03 .14258E-03 0.947E-01 0.102E+00 0.000E+00 0.000E+00 0.000E+00
BIGSUB    2        0   57.53442E+01 0.890E+01 0.000E+00 0.166E+01 0.140E+01 0.183E+03 0.326E+01 0.217E+00 0.843E+00 0.123E+01 0.673E-02 0.105E-01 0.159E-02 0.492E-02 0.179E-03 0.275E-02 0.130E+00 0.345E-02 0.493E-03 .20604E-03 0.208E+00 0.101E+00 0.000E+00 0.000E+00 0.000E+00
BIGSUB    3        0   57.78363E+01 0.970E+01 0.000E+00 0.164E+01 0.139E+01 0.190E+03 0.361E+01 0.344E+00 0.866E+00 0.140E+01 0.128E-01 0.158E-01 0.233E-02 0.580E-02 0.203E-03 0.354E-02 0.149E+00 0.364E-02 0.237E-03 .28093E-03 0.419E+00 0.108E+00 0.000E+00 0.000E+00 0.000E+00
BIGSUB    1        0   58.87822E+01 0.152E+02 0.000E+00 0.251E+01 0.189E+01 0.190E+03 0.108E+02 0.170E+01 0.852E+00 0.288E+01 0.278E-01 0.509E-01 0.826E-02 0.895E-02 0.159E-02 0.158E-01 0.283E+00 0.100E-01 0.745E-03 .13577E-02 0.109E+01 0.151E+00 0.000E+00 0.000E+00 0.000E+00
BIGSUB    2        0   58.53442E+01 0.155E+02 0.000E+00 0.252E+01 0.186E+01 0.183E+03 0.111E+02 0.162E+01 0.865E+00 0.280E+01 0.503E-01 0.801E-01 0.126E-01 0.805E-02 0.140E-02 0.242E-01 0.280E+00 0.795E-02 0.554E-03 .20621E-02 0.173E+01 0.154E+00 0.000E+00 0.000E+00 0.000E+00
BIGSUB    3        0   58.78363E+01 0.163E+02 0.000E+00 0.255E+01 0.193E+01 0.191E+03 0.109E+02 0.201E+01 0.890E+00 0.324E+01 0.649E-01 0.909E-01 0.135E-01 0.865E-02 0.119E-02 0.217E-01 0.303E+00 0.789E-02 0.272E-03 .23864E-02 0.275E+01 0.168E+00 0.000E+00 0.000E+00 0.000E+00
BIGSUB    1        0   59.87822E+01 0.000E+00 0.000E+00 0.151E+01 0.819E+00 0.188E+03 0.613E+00 0.303E-01 0.873E+00 0.115E+01 0.454E-10 0.967E-03 0.159E-03 0.177E-03 0.337E-04 0.338E-03 0.202E+00 0.711E-02 0.817E-03 .26103E-06 0.000E+00 0.117E+00 0.000E+00 0.000E+00 0.000E+00
BIGSUB    2        0   59.53442E+01 0.000E+00 0.000E+00 0.151E+01 0.808E+00 0.182E+03 0.643E+00 0.155E-01 0.884E+00 0.114E+01 0.839E-10 0.805E-03 0.129E-03 0.864E-04 0.159E-04 0.273E-03 0.200E+00 0.566E-02 0.608E-03 .15082E-06 0.000E+00 0.117E+00 0.000E+00 0.000E+00 0.000E+00
BIGSUB    3        0   59.78363E+01 0.000E+00 0.000E+00 0.146E+01 0.767E+00 0.189E+03 0.113E+01 0.198E-01 0.912E+00 0.119E+01 0.585E-10 0.831E-03 0.126E-03 0.978E-04 0.124E-04 0.233E-03 0.218E+00 0.561E-02 0.304E-03 .91346E-07 0.000E+00 0.124E+00 0.000E+00 0.000E+00 0.000E+00
BIGSUB    1        0   60.87822E+01 0.239E+02 0.000E+00 0.249E+01 0.188E+01 0.190E+03 0.142E+02 0.509E+01 0.910E+00 0.644E+01 0.120E+00 0.178E+00 0.279E-01 0.244E-01 0.390E-02 0.556E-01 0.396E+00 0.127E-01 0.957E-03 .60438E-02 0.499E+01 0.237E+00 0.000E+00 0.000E+00 0.000E+00
BIGSUB    2        0   60.53442E+01 0.224E+02 0.000E+00 0.249E+01 0.185E+01 0.183E+03 0.139E+02 0.400E+01 0.920E+00 0.534E+01 0.119E+00 0.159E+00 0.243E-01 0.195E-01 0.288E-02 0.486E-01 0.385E+00 0.998E-02 0.713E-03 .51884E-02 0.467E+01 0.225E+00 0.000E+00 0.000E+00 0.000E+00
BIGSUB    3        0   60.78363E+01 0.252E+02 0.000E+00 0.254E+01 0.192E+01 0.191E+03 0.141E+02 0.560E+01 0.951E+00 0.701E+01 0.271E+00 0.290E+00 0.432E-01 0.217E-01 0.327E-02 0.714E-01 0.420E+00 0.998E-02 0.368E-03 .95067E-02 0.121E+02 0.266E+00 0.000E+00 0.000E+00 0.000E+00
BIGSUB    1        0   61.87822E+01 0.100E+01 0.000E+00 0.908E+00 0.810E+00 0.189E+03 0.826E+00 0.897E-01 0.945E+00 0.136E+01 0.454E-10 0.347E-02 0.544E-03 0.504E-03 0.766E-04 0.119E-02 0.284E+00 0.904E-02 0.108E-02 .38549E-05 0.000E+00 0.135E+00 0.000E+00 0.000E+00 0.000E+00
BIGSUB    2        0   61.53442E+01 0.230E+01 0.000E+00 0.906E+00 0.804E+00 0.184E+03 0.115E+01 0.384E-01 0.953E+00 0.132E+01 0.839E-10 0.163E-02 0.250E-03 0.219E-03 0.303E-04 0.548E-03 0.287E+00 0.727E-02 0.808E-03 .70755E-06 0.720E-11 0.132E+00 0.000E+00 0.000E+00 0.000E+00
BIGSUB    3        0   61.78363E+01 0.330E+01 0.000E+00 0.883E+00 0.793E+00 0.191E+03 0.261E+01 0.554E-01 0.989E+00 0.141E+01 0.585E-10 0.273E-02 0.414E-03 0.257E-03 0.338E-04 0.773E-03 0.328E+00 0.756E-02 0.430E-03 .13140E-05 0.403E-10 0.144E+00 0.000E+00 0.000E+00 0.000E+00
BIGSUB    1        0   62.87822E+01 0.380E+01 0.000E+00 0.126E+01 0.113E+01 0.190E+03 0.204E+01 0.576E-02 0.978E+00 0.127E+01 0.623E-04 0.222E-03 0.327E-04 0.680E-04 0.373E-05 0.637E-04 0.240E+00 0.733E-02 0.120E-02 .83223E-06 0.141E-02 0.132E+00 0.000E+00 0.000E+00 0.000E+00
BIGSUB    2        0   62.53442E+01 0.410E+01 0.000E+00 0.126E+01 0.112E+01 0.183E+03 0.315E+01 0.402E-02 0.987E+00 0.129E+01 0.279E-04 0.120E-03 0.130E-04 0.575E-04 0.250E-05 0.205E-04 0.255E+00 0.633E-02 0.905E-03 .62373E-06 0.656E-03 0.135E+00 0.000E+00 0.000E+00 0.000E+00
BIGSUB    3        0   62.78363E+01 0.410E+01 0.000E+00 0.124E+01 0.111E+01 0.190E+03 0.337E+01 0.412E-02 0.103E+01 0.136E+01 0.646E-04 0.191E-03 0.243E-04 0.438E-04 0.221E-05 0.403E-04 0.286E+00 0.642E-02 0.493E-03 .17517E-06 0.704E-03 0.145E+00 0.000E+00 0.000E+00 0.000E+00
BIGSUB    1        0   63.87822E+01 0.530E+01 0.000E+00 0.305E+01 0.221E+01 0.189E+03 0.385E+01 0.195E-01 0.101E+01 0.131E+01 0.522E-03 0.994E-03 0.145E-03 0.193E-03 0.123E-04 0.226E-03 0.235E+00 0.699E-02 0.133E-02 .15599E-04 0.149E-01 0.132E+00 0.000E+00 0.000E+00 0.000E+00
BIGSUB    2        0   63.53442E+01 0.560E+01 0.000E+00 0.306E+01 0.217E+01 0.182E+03 0.419E+01 0.224E-01 0.102E+01 0.134E+01 0.438E-03 0.876E-03 0.117E-03 0.195E-03 0.137E-04 0.178E-03 0.249E+00 0.604E-02 0.101E-02 .96317E-05 0.111E-01 0.135E+00 0.000E+00 0.000E+00 0.000E+00
BIGSUB    3        0   63.78363E+01 0.660E+01 0.000E+00 0.311E+01 0.224E+01 0.189E+03 0.500E+01 0.619E-01 0.107E+01 0.146E+01 0.251E-02 0.326E-02 0.464E-03 0.372E-03 0.332E-04 0.686E-03 0.289E+00 0.628E-02 0.564E-03 .21050E-04 0.477E-01 0.147E+00 0.000E+00 0.000E+00 0.000E+00
BIGSUB    1        0   64.87822E+01 0.800E+00 0.000E+00 0.118E+01 0.102E+01 0.188E+03 0.265E+00 0.677E-04 0.104E+01 0.126E+01 0.454E-10 0.392E-05 0.545E-06 0.818E-06 0.422E-07 0.918E-06 0.169E+00 0.497E-02 0.143E-02 .72291E-10 0.000E+00 0.113E+00 0.000E+00 0.000E+00 0.000E+00
BIGSUB    2        0   64.53442E+01 0.250E+01 0.000E+00 0.118E+01 0.104E+01 0.183E+03 0.539E+00 0.544E-03 0.106E+01 0.129E+01 0.839E-10 0.101E-04 0.132E-05 0.261E-05 0.156E-06 0.192E-05 0.191E+00 0.442E-02 0.110E-02 .34844E-09 0.863E-11 0.117E+00 0.000E+00 0.000E+00 0.000E+00
BIGSUB    3        0   64.78363E+01 0.200E+01 0.000E+00 0.114E+01 0.103E+01 0.190E+03 0.654E+00 0.403E-03 0.111E+01 0.136E+01 0.585E-10 0.143E-04 0.197E-05 0.250E-05 0.179E-06 0.335E-05 0.214E+00 0.449E-02 0.626E-03 .13157E-10 0.533E-12 0.126E+00 0.000E+00 0.000E+00 0.000E+00
BIGSUB    1        0   65.87822E+01 0.500E+00 0.000E+00 0.434E+00 0.379E+00 0.189E+03 0.822E-01 0.125E-05 0.107E+01 0.124E+01 0.454E-10 0.239E-07 0.378E-08 0.512E-08 0.111E-08 0.700E-08 0.122E+00 0.353E-02 0.152E-02 .22561E-16 0.000E+00 0.110E+00 0.000E+00 0.000E+00 0.000E+00
BIGSUB    2        0   65.53442E+01 0.500E+00 0.000E+00 0.432E+00 0.380E+00 0.183E+03 0.117E+00 0.173E-05 0.108E+01 0.127E+01 0.839E-10 0.201E-07 0.333E-08 0.652E-08 0.120E-08 0.567E-08 0.137E+00 0.317E-02 0.118E-02 .20718E-16 0.000E+00 0.113E+00 0.000E+00 0.000E+00 0.000E+00
BIGSUB    3        0   65.78363E+01 0.250E+01 0.000E+00 0.417E+00 0.375E+00 0.191E+03 0.122E+01 0.217E-03 0.114E+01 0.136E+01 0.357E-06 0.594E-06 0.846E-07 0.999E-06 0.598E-07 0.174E-06 0.177E+00 0.359E-02 0.683E-03 .34059E-10 0.314E-06 0.124E+00 0.000E+00 0.000E+00 0.000E+00
BIGSUB    1        0   66.87822E+01 0.198E+02 0.000E+00 0.132E+01 0.118E+01 0.191E+03 0.124E+02 0.328E+01 0.111E+01 0.475E+01 0.586E-01 0.921E-01 0.144E-01 0.144E-01 0.241E-02 0.291E-01 0.310E+00 0.828E-02 0.168E-02 .27473E-02 0.241E+01 0.194E+00 0.000E+00 0.000E+00 0.000E+00
BIGSUB    2        0   66.53442E+01 0.180E+02 0.000E+00 0.131E+01 0.116E+01 0.184E+03 0.129E+02 0.241E+01 0.113E+01 0.390E+01 0.520E-01 0.763E-01 0.116E-01 0.976E-02 0.167E-02 0.237E-01 0.317E+00 0.701E-02 0.131E-02 .20598E-02 0.201E+01 0.187E+00 0.000E+00 0.000E+00 0.000E+00
BIGSUB    3        0   66.78363E+01 0.180E+02 0.000E+00 0.128E+01 0.115E+01 0.192E+03 0.124E+02 0.263E+01 0.119E+01 0.421E+01 0.138E+00 0.146E+00 0.215E-01 0.850E-02 0.145E-02 0.357E-01 0.352E+00 0.702E-02 0.777E-03 .35970E-02 0.545E+01 0.197E+00 0.000E+00 0.000E+00 0.000E+00
BIGSUB    1        0   67.87822E+01 0.300E+00 0.000E+00 0.191E+01 0.134E+01 0.189E+03 0.686E+00 0.586E-01 0.115E+01 0.147E+01 0.454E-10 0.184E-02 0.288E-03 0.287E-03 0.478E-04 0.640E-03 0.222E+00 0.589E-02 0.182E-02 .81136E-06 0.000E+00 0.142E+00 0.000E+00 0.000E+00 0.000E+00
BIGSUB    2        0   67.53442E+01 0.000E+00 0.000E+00 0.191E+01 0.109E+01 0.182E+03 0.719E+00 0.232E-01 0.116E+01 0.146E+01 0.839E-10 0.812E-03 0.125E-03 0.104E-03 0.176E-04 0.277E-03 0.227E+00 0.502E-02 0.143E-02 .16439E-06 0.000E+00 0.141E+00 0.000E+00 0.000E+00 0.000E+00
BIGSUB    3        0   67.78363E+01 0.000E+00 0.000E+00 0.186E+01 0.107E+01 0.189E+03 0.126E+01 0.261E-01 0.123E+01 0.156E+01 0.585E-10 0.134E-02 0.202E-03 0.956E-04 0.152E-04 0.382E-03 0.254E+00 0.501E-02 0.862E-03 .13162E-06 0.000E+00 0.153E+00 0.000E+00 0.000E+00 0.000E+00
BIGSUB    1        0   68.87822E+01 0.410E+01 0.000E+00 0.947E+00 0.851E+00 0.190E+03 0.189E+01 0.631E-02 0.118E+01 0.143E+01 0.523E-04 0.192E-03 0.253E-04 0.903E-04 0.408E-05 0.452E-04 0.194E+00 0.493E-02 0.195E-02 .68676E-06 0.116E-02 0.131E+00 0.000E+00 0.000E+00 0.000E+00
BIGSUB    2        0   68.53442E+01 0.510E+01 0.000E+00 0.945E+00 0.844E+00 0.184E+03 0.273E+01 0.136E-01 0.120E+01 0.148E+01 0.284E-03 0.564E-03 0.733E-04 0.187E-03 0.795E-05 0.114E-03 0.212E+00 0.446E-02 0.155E-02 .64694E-05 0.670E-02 0.135E+00 0.000E+00 0.000E+00 0.000E+00
BIGSUB    3        0   68.78363E+01 0.530E+01 0.000E+00 0.920E+00 0.831E+00 0.191E+03 0.297E+01 0.177E-01 0.128E+01 0.158E+01 0.463E-03 0.765E-03 0.105E-03 0.188E-03 0.910E-05 0.161E-03 0.236E+00 0.443E-02 0.946E-03 .23340E-05 0.676E-02 0.147E+00 0.000E+00 0.000E+00 0.000E+00
BIGSUB    1        0   69.87822E+01 0.000E+00 0.000E+00 0.355E+01 0.210E+01 0.188E+03 0.174E+00 0.693E-04 0.122E+01 0.140E+01 0.454E-10 0.225E-05 0.337E-06 0.616E-06 0.542E-07 0.709E-06 0.139E+00 0.351E-02 0.206E-02 .23349E-12 0.000E+00 0.128E+00 0.000E+00 0.000E+00 0.000E+00
BIGSUB    2        0   69.53442E+01 0.000E+00 0.000E+00 0.354E+01 0.207E+01 0.181E+03 0.229E+00 0.506E-04 0.124E+01 0.144E+01 0.839E-10 0.222E-05 0.286E-06 0.762E-06 0.285E-07 0.481E-06 0.153E+00 0.320E-02 0.165E-02 .33026E-10 0.000E+00 0.132E+00 0.000E+00 0.000E+00 0.000E+00
BIGSUB    3        0   69.78363E+01 0.000E+00 0.000E+00 0.348E+01 0.204E+01 0.188E+03 0.440E+00 0.665E-04 0.131E+01 0.153E+01 0.585E-10 0.305E-05 0.403E-06 0.664E-06 0.284E-07 0.665E-06 0.171E+00 0.316E-02 0.102E-02 .32433E-12 0.000E+00 0.143E+00 0.000E+00 0.000E+00 0.000E+00
BIGSUB    1        0   70.87822E+01 0.000E+00 0.000E+00 0.284E+01 0.132E+01 0.187E+03 0.573E-01 0.224E-05 0.124E+01 0.139E+01 0.454E-10 0.545E-07 0.894E-08 0.103E-07 0.194E-08 0.197E-07 0.100E+00 0.250E-02 0.215E-02 .59305E-19 0.000E+00 0.131E+00 0.000E+00 0.000E+00 0.000E+00
BIGSUB    2        0   70.53442E+01 0.000E+00 0.000E+00 0.283E+01 0.131E+01 0.180E+03 0.775E-01 0.117E-05 0.127E+01 0.142E+01 0.839E-10 0.160E-07 0.269E-08 0.499E-08 0.103E-08 0.505E-08 0.110E+00 0.230E-02 0.173E-02 .11118E-16 0.000E+00 0.135E+00 0.000E+00 0.000E+00 0.000E+00
BIGSUB    3        0   70.78363E+01 0.000E+00 0.000E+00 0.279E+01 0.126E+01 0.187E+03 0.172E+00 0.121E-05 0.135E+01 0.152E+01 0.585E-10 0.233E-07 0.378E-08 0.414E-08 0.102E-08 0.675E-08 0.124E+00 0.226E-02 0.108E-02 .38224E-19 0.000E+00 0.147E+00 0.000E+00 0.000E+00 0.000E+00
BIGSUB    1        0   71.87822E+01 0.000E+00 0.000E+00 0.322E+01 0.132E+01 0.185E+03 0.230E-01 0.986E-06 0.127E+01 0.139E+01 0.454E-10 0.214E-08 0.954E-09 0.955E-09 0.954E-09 0.202E-08 0.725E-01 0.178E-02 0.221E-02 .88607E-22 0.000E+00 0.125E+00 0.000E+00 0.000E+00 0.000E+00
BIGSUB    2        0   71.53442E+01 0.000E+00 0.000E+00 0.322E+01 0.131E+01 0.179E+03 0.359E-01 0.992E-06 0.129E+01 0.142E+01 0.839E-10 0.100E-08 0.962E-09 0.968E-09 0.962E-09 0.192E-08 0.800E-01 0.166E-02 0.179E-02 .93781E-21 0.000E+00 0.129E+00 0.000E+00 0.000E+00 0.000E+00
BIGSUB    3        0   71.78363E+01 0.000E+00 0.000E+00 0.317E+01 0.125E+01 0.185E+03 0.793E-01 0.992E-06 0.138E+01 0.152E+01 0.585E-10 0.102E-08 0.981E-09 0.982E-09 0.981E-09 0.196E-08 0.911E-01 0.162E-02 0.113E-02 .41752E-22 0.000E+00 0.140E+00 0.000E+00 0.000E+00 0.000E+00
BIGSUB    1        0   72.87822E+01 0.410E+01 0.000E+00 0.313E+01 0.218E+01 0.187E+03 0.115E-01 0.420E-02 0.129E+01 0.140E+01 0.467E-04 0.127E-03 0.151E-04 0.131E-03 0.240E-05 0.236E-04 0.658E-01 0.136E-02 0.226E-02 .48784E-06 0.803E-03 0.121E+00 0.000E+00 0.000E+00 0.000E+00
BIGSUB    2        0   72.53442E+01 0.460E+01 0.000E+00 0.312E+01 0.221E+01 0.181E+03 0.218E-01 0.622E-02 0.131E+01 0.144E+01 0.119E-03 0.264E-03 0.315E-04 0.175E-03 0.352E-05 0.478E-04 0.740E-01 0.129E-02 0.184E-02 .54187E-05 0.344E-02 0.124E+00 0.000E+00 0.000E+00 0.000E+00
BIGSUB    3        0   72.78363E+01 0.610E+01 0.000E+00 0.307E+01 0.224E+01 0.188E+03 0.636E+00 0.325E-01 0.140E+01 0.159E+01 0.108E-02 0.154E-02 0.213E-03 0.488E-03 0.166E-04 0.322E-03 0.102E+00 0.152E-02 0.117E-02 .82896E-05 0.187E-01 0.137E+00 0.000E+00 0.000E+00 0.000E+00
BIGSUB    1        0   73.87822E+01 0.500E+00 0.000E+00 0.133E+01 0.104E+01 0.187E+03 0.633E-02 0.162E-04 0.130E+01 0.140E+01 0.454E-10 0.540E-06 0.704E-07 0.608E-06 0.102E-07 0.116E-06 0.479E-01 0.980E-03 0.229E-02 .12792E-12 0.000E+00 0.127E+00 0.000E+00 0.000E+00 0.000E+00
BIGSUB    2        0   73.53442E+01 0.300E+00 0.000E+00 0.133E+01 0.863E+00 0.181E+03 0.105E-01 0.212E-04 0.133E+01 0.143E+01 0.839E-10 0.900E-06 0.111E-06 0.765E-06 0.118E-07 0.178E-06 0.541E-01 0.939E-03 0.187E-02 .35635E-10 0.000E+00 0.130E+00 0.000E+00 0.000E+00 0.000E+00
BIGSUB    3        0   73.78363E+01 0.300E+00 0.000E+00 0.130E+01 0.835E+00 0.188E+03 0.769E-01 0.106E-03 0.142E+01 0.155E+01 0.585E-10 0.517E-05 0.665E-06 0.172E-05 0.412E-07 0.105E-05 0.747E-01 0.110E-02 0.119E-02 .16045E-11 0.000E+00 0.144E+00 0.000E+00 0.000E+00 0.000E+00
BIGSUB    1        0   74.87822E+01 0.147E+02 0.000E+00 0.694E+00 0.624E+00 0.191E+03 0.813E+01 0.145E+01 0.133E+01 0.302E+01 0.512E-01 0.676E-01 0.101E-01 0.844E-02 0.896E-03 0.206E-01 0.194E+00 0.437E-02 0.237E-02 .13956E-02 0.162E+01 0.178E+00 0.000E+00 0.000E+00 0.000E+00
BIGSUB    2        0   74.53442E+01 0.135E+02 0.000E+00 0.692E+00 0.619E+00 0.184E+03 0.788E+01 0.102E+01 0.135E+01 0.262E+01 0.317E-01 0.422E-01 0.615E-02 0.587E-02 0.616E-03 0.126E-01 0.188E+00 0.347E-02 0.194E-02 .78497E-03 0.973E+00 0.179E+00 0.000E+00 0.000E+00 0.000E+00
BIGSUB    3        0   74.78363E+01 0.119E+02 0.000E+00 0.665E+00 0.603E+00 0.191E+03 0.685E+01 0.763E+00 0.145E+01 0.246E+01 0.381E-01 0.410E-01 0.583E-02 0.388E-02 0.374E-03 0.976E-02 0.190E+00 0.316E-02 0.125E-02 .55586E-03 0.113E+01 0.185E+00 0.000E+00 0.000E+00 0.000E+00
BIGSUB    1        0   75.87822E+01 0.500E+00 0.000E+00 0.266E+01 0.201E+01 0.189E+03 0.438E+00 0.256E-01 0.135E+01 0.156E+01 0.454E-10 0.124E-02 0.185E-03 0.168E-03 0.162E-04 0.425E-03 0.140E+00 0.311E-02 0.243E-02 .94673E-07 0.000E+00 0.144E+00 0.000E+00 0.000E+00 0.000E+00
BIGSUB    2        0   75.53442E+01 0.300E+00 0.000E+00 0.266E+01 0.194E+01 0.182E+03 0.432E+00 0.961E-02 0.138E+01 0.157E+01 0.839E-10 0.419E-03 0.612E-04 0.623E-04 0.583E-05 0.139E-03 0.135E+00 0.249E-02 0.200E-02 .63929E-07 0.000E+00 0.146E+00 0.000E+00 0.000E+00 0.000E+00
BIGSUB    3        0   75.78363E+01 0.500E+00 0.000E+00 0.260E+01 0.197E+01 0.189E+03 0.660E+00 0.722E-02 0.148E+01 0.167E+01 0.585E-10 0.342E-03 0.492E-04 0.431E-04 0.342E-05 0.982E-04 0.139E+00 0.226E-02 0.129E-02 .27605E-08 0.000E+00 0.158E+00 0.000E+00 0.000E+00 0.000E+00
BIGSUB    1        0   76.87822E+01 0.244E+02 0.000E+00 0.939E+00 0.849E+00 0.191E+03 0.149E+02 0.538E+01 0.139E+01 0.717E+01 0.261E+00 0.305E+00 0.455E-01 0.193E-01 0.326E-02 0.968E-01 0.362E+00 0.804E-02 0.260E-02 .90076E-02 0.863E+01 0.254E+00 0.000E+00 0.000E+00 0.000E+00
BIGSUB    2        0   76.53442E+01 0.257E+02 0.000E+00 0.936E+00 0.842E+00 0.185E+03 0.158E+02 0.550E+01 0.142E+01 0.734E+01 0.188E+00 0.227E+00 0.332E-01 0.189E-01 0.319E-02 0.721E-01 0.371E+00 0.666E-02 0.215E-02 .69763E-02 0.674E+01 0.283E+00 0.000E+00 0.000E+00 0.000E+00
BIGSUB    3        0   76.78363E+01 0.239E+02 0.000E+00 0.905E+00 0.825E+00 0.192E+03 0.139E+02 0.500E+01 0.152E+01 0.693E+01 0.291E+00 0.289E+00 0.415E-01 0.159E-01 0.243E-02 0.742E-01 0.360E+00 0.594E-02 0.139E-02 .81483E-02 0.115E+02 0.273E+00 0.000E+00 0.000E+00 0.000E+00
BIGSUB    1        0   77.87822E+01 0.250E+01 0.000E+00 0.211E+01 0.170E+01 0.190E+03 0.231E+01 0.953E-01 0.142E+01 0.185E+01 0.454E-10 0.603E-02 0.899E-03 0.370E-03 0.596E-04 0.208E-02 0.284E+00 0.623E-02 0.276E-02 .34804E-05 0.956E-11 0.162E+00 0.000E+00 0.000E+00 0.000E+00
BIGSUB    2        0   77.53442E+01 0.300E+00 0.000E+00 0.211E+01 0.155E+01 0.182E+03 0.891E+00 0.519E-01 0.145E+01 0.182E+01 0.839E-10 0.245E-02 0.360E-03 0.191E-03 0.307E-04 0.838E-03 0.266E+00 0.476E-02 0.227E-02 .10406E-05 0.000E+00 0.160E+00 0.000E+00 0.000E+00 0.000E+00
BIGSUB    3        0   77.78363E+01 0.300E+00 0.000E+00 0.207E+01 0.155E+01 0.189E+03 0.142E+01 0.491E-01 0.155E+01 0.191E+01 0.585E-10 0.280E-02 0.406E-03 0.171E-03 0.231E-04 0.830E-03 0.259E+00 0.424E-02 0.147E-02 .59240E-06 0.000E+00 0.171E+00 0.000E+00 0.000E+00 0.000E+00
BIGSUB    1        0   78.87822E+01 0.510E+01 0.000E+00 0.171E+01 0.146E+01 0.190E+03 0.331E+01 0.186E-01 0.146E+01 0.179E+01 0.415E-03 0.899E-03 0.126E-03 0.162E-03 0.101E-04 0.223E-03 0.259E+00 0.550E-02 0.291E-02 .29010E-05 0.694E-02 0.153E+00 0.000E+00 0.000E+00 0.000E+00
BIGSUB    2        0   78.53442E+01 0.510E+01 0.000E+00 0.171E+01 0.145E+01 0.183E+03 0.292E+01 0.141E-01 0.149E+01 0.180E+01 0.326E-03 0.633E-03 0.819E-04 0.242E-03 0.781E-05 0.134E-03 0.241E+00 0.420E-02 0.239E-02 .72211E-05 0.700E-02 0.155E+00 0.000E+00 0.000E+00 0.000E+00
BIGSUB    3        0   78.78363E+01 0.510E+01 0.000E+00 0.167E+01 0.144E+01 0.190E+03 0.299E+01 0.148E-01 0.159E+01 0.189E+01 0.414E-03 0.705E-03 0.942E-04 0.199E-03 0.687E-05 0.151E-03 0.238E+00 0.377E-02 0.155E-02 .12714E-05 0.453E-02 0.166E+00 0.000E+00 0.000E+00 0.000E+00
BIGSUB    1        0   79.87822E+01 0.279E+02 0.000E+00 0.175E+01 0.149E+01 0.191E+03 0.170E+02 0.728E+01 0.152E+01 0.932E+01 0.256E+00 0.318E+00 0.474E-01 0.192E-01 0.435E-02 0.103E+00 0.478E+00 0.940E-02 0.319E-02 .97167E-02 0.912E+01 0.297E+00 0.000E+00 0.000E+00 0.000E+00
BIGSUB    2        0   79.53442E+01 0.295E+02 0.000E+00 0.175E+01 0.148E+01 0.184E+03 0.182E+02 0.751E+01 0.155E+01 0.959E+01 0.353E+00 0.383E+00 0.561E-01 0.201E-01 0.430E-02 0.123E+00 0.482E+00 0.774E-02 0.262E-02 .11944E-01 0.118E+02 0.326E+00 0.000E+00 0.000E+00 0.000E+00
BIGSUB    3        0   79.78363E+01 0.295E+02 0.000E+00 0.171E+01 0.146E+01 0.192E+03 0.167E+02 0.799E+01 0.164E+01 0.102E+02 0.281E+00 0.309E+00 0.442E-01 0.207E-01 0.387E-02 0.810E-01 0.478E+00 0.713E-02 0.171E-02 .96063E-02 0.128E+02 0.345E+00 0.000E+00 0.000E+00 0.000E+00
BIGSUB    1        0   80.87822E+01 0.000E+00 0.000E+00 0.452E+01 0.244E+01 0.187E+03 0.994E+00 0.126E+00 0.157E+01 0.209E+01 0.454E-10 0.651E-02 0.969E-03 0.352E-03 0.779E-04 0.226E-02 0.341E+00 0.668E-02 0.343E-02 .50416E-05 0.000E+00 0.183E+00 0.000E+00 0.000E+00 0.000E+00
BIGSUB    2        0   80.53442E+01 0.000E+00 0.000E+00 0.452E+01 0.240E+01 0.181E+03 0.105E+01 0.699E-01 0.160E+01 0.207E+01 0.839E-10 0.411E-02 0.603E-03 0.197E-03 0.406E-04 0.141E-02 0.345E+00 0.554E-02 0.282E-02 .19776E-05 0.000E+00 0.182E+00 0.000E+00 0.000E+00 0.000E+00
BIGSUB    3        0   80.78363E+01 0.000E+00 0.000E+00 0.447E+01 0.236E+01 0.188E+03 0.177E+01 0.770E-01 0.169E+01 0.217E+01 0.585E-10 0.310E-02 0.449E-03 0.213E-03 0.358E-04 0.928E-03 0.343E+00 0.508E-02 0.184E-02 .11676E-05 0.000E+00 0.194E+00 0.000E+00 0.000E+00 0.000E+00
BIGSUB    1        0   81.87822E+01 0.000E+00 0.000E+00 0.397E+01 0.169E+01 0.186E+03 0.287E+00 0.363E-02 0.161E+01 0.191E+01 0.454E-10 0.191E-03 0.286E-04 0.102E-04 0.228E-05 0.669E-04 0.243E+00 0.475E-02 0.362E-02 .20722E-09 0.000E+00 0.174E+00 0.000E+00 0.000E+00 0.000E+00
BIGSUB    2        0   81.53442E+01 0.000E+00 0.000E+00 0.397E+01 0.169E+01 0.179E+03 0.298E+00 0.106E-02 0.164E+01 0.195E+01 0.839E-10 0.654E-04 0.969E-05 0.303E-05 0.639E-06 0.227E-04 0.247E+00 0.396E-02 0.299E-02 .10766E-10 0.000E+00 0.177E+00 0.000E+00 0.000E+00 0.000E+00
BIGSUB    3        0   81.78363E+01 0.000E+00 0.000E+00 0.389E+01 0.161E+01 0.186E+03 0.635E+00 0.136E-02 0.174E+01 0.204E+01 0.585E-10 0.563E-04 0.824E-05 0.382E-05 0.644E-06 0.173E-04 0.247E+00 0.362E-02 0.196E-02 .12793E-10 0.000E+00 0.190E+00 0.000E+00 0.000E+00 0.000E+00
BIGSUB    1        0   82.87822E+01 0.000E+00 0.000E+00 0.327E+01 0.122E+01 0.184E+03 0.120E+00 0.111E-03 0.165E+01 0.188E+01 0.454E-10 0.586E-05 0.876E-06 0.312E-06 0.702E-07 0.205E-05 0.174E+00 0.338E-02 0.378E-02 .63964E-14 0.000E+00 0.173E+00 0.000E+00 0.000E+00 0.000E+00
BIGSUB    2        0   82.53442E+01 0.000E+00 0.000E+00 0.327E+01 0.123E+01 0.178E+03 0.135E+00 0.189E-04 0.168E+01 0.192E+01 0.839E-10 0.114E-05 0.170E-06 0.530E-07 0.118E-07 0.398E-06 0.178E+00 0.284E-02 0.312E-02 .68396E-16 0.000E+00 0.177E+00 0.000E+00 0.000E+00 0.000E+00
BIGSUB    3        0   82.78363E+01 0.000E+00 0.000E+00 0.321E+01 0.115E+01 0.184E+03 0.291E+00 0.276E-04 0.178E+01 0.201E+01 0.585E-10 0.112E-05 0.165E-06 0.765E-07 0.135E-07 0.348E-06 0.179E+00 0.259E-02 0.205E-02 .11747E-15 0.000E+00 0.190E+00 0.000E+00 0.000E+00 0.000E+00
BIGSUB    1        0   83.87822E+01 0.000E+00 0.000E+00 0.430E+01 0.147E+01 0.183E+03 0.534E-01 0.400E-05 0.168E+01 0.186E+01 0.454E-10 0.181E-06 0.276E-07 0.102E-07 0.272E-08 0.644E-07 0.125E+00 0.241E-02 0.390E-02 .19215E-18 0.000E+00 0.173E+00 0.000E+00 0.000E+00 0.000E+00
BIGSUB    2        0   83.53442E+01 0.000E+00 0.000E+00 0.429E+01 0.148E+01 0.176E+03 0.665E-01 0.105E-05 0.172E+01 0.190E+01 0.839E-10 0.211E-07 0.373E-08 0.164E-08 0.962E-09 0.851E-08 0.128E+00 0.204E-02 0.323E-02 .47583E-21 0.000E+00 0.177E+00 0.000E+00 0.000E+00 0.000E+00
BIGSUB    3        0   83.78363E+01 0.000E+00 0.000E+00 0.422E+01 0.139E+01 0.183E+03 0.141E+00 0.125E-05 0.181E+01 0.200E+01 0.585E-10 0.235E-07 0.404E-08 0.224E-08 0.981E-09 0.847E-08 0.130E+00 0.186E-02 0.212E-02 .10834E-20 0.000E+00 0.189E+00 0.000E+00 0.000E+00 0.000E+00
BIGSUB    1        0   84.87822E+01 0.000E+00 0.000E+00 0.443E+01 0.138E+01 0.182E+03 0.233E-01 0.986E-06 0.171E+01 0.186E+01 0.454E-10 0.614E-08 0.140E-08 0.954E-09 0.954E-09 0.329E-08 0.907E-01 0.172E-02 0.399E-02 .96320E-22 0.000E+00 0.168E+00 0.000E+00 0.000E+00 0.000E+00
BIGSUB    2        0   84.53442E+01 0.000E+00 0.000E+00 0.442E+01 0.139E+01 0.175E+03 0.334E-01 0.992E-06 0.175E+01 0.190E+01 0.839E-10 0.108E-08 0.962E-09 0.962E-09 0.962E-09 0.192E-08 0.932E-01 0.148E-02 0.330E-02 .34309E-22 0.000E+00 0.172E+00 0.000E+00 0.000E+00 0.000E+00
BIGSUB    3        0   84.78363E+01 0.000E+00 0.000E+00 0.436E+01 0.130E+01 0.182E+03 0.696E-01 0.992E-06 0.184E+01 0.199E+01 0.585E-10 0.116E-08 0.981E-09 0.981E-09 0.981E-09 0.196E-08 0.955E-01 0.133E-02 0.218E-02 .24443E-22 0.000E+00 0.184E+00 0.000E+00 0.000E+00 0.000E+00
BIGSUB    1        0   85.87822E+01 0.000E+00 0.000E+00 0.414E+01 0.119E+01 0.181E+03 0.128E-01 0.986E-06 0.173E+01 0.186E+01 0.454E-10 0.954E-09 0.954E-09 0.954E-09 0.954E-09 0.191E-08 0.659E-01 0.123E-02 0.404E-02 .25160E-22 0.000E+00 0.165E+00 0.000E+00 0.000E+00 0.000E+00
BIGSUB    2        0   85.53442E+01 0.000E+00 0.000E+00 0.414E+01 0.121E+01 0.174E+03 0.184E-01 0.992E-06 0.177E+01 0.190E+01 0.839E-10 0.962E-09 0.962E-09 0.962E-09 0.962E-09 0.192E-08 0.681E-01 0.107E-02 0.335E-02 .30489E-22 0.000E+00 0.169E+00 0.000E+00 0.000E+00 0.000E+00
BIGSUB    3        0   85.78363E+01 0.000E+00 0.000E+00 0.408E+01 0.112E+01 0.180E+03 0.384E-01 0.992E-06 0.186E+01 0.199E+01 0.585E-10 0.981E-09 0.981E-09 0.981E-09 0.981E-09 0.196E-08 0.706E-01 0.965E-03 0.221E-02 .22156E-22 0.000E+00 0.181E+00 0.000E+00 0.000E+00 0.000E+00
BIGSUB    1        0   86.87822E+01 0.000E+00 0.000E+00 0.270E+01 0.731E+00 0.180E+03 0.710E-02 0.986E-06 0.175E+01 0.186E+01 0.454E-10 0.954E-09 0.954E-09 0.954E-09 0.954E-09 0.191E-08 0.482E-01 0.888E-03 0.407E-02 .24973E-22 0.000E+00 0.164E+00 0.000E+00 0.000E+00 0.000E+00
BIGSUB    2        0   86.53442E+01 0.000E+00 0.000E+00 0.270E+01 0.743E+00 0.173E+03 0.102E-01 0.992E-06 0.179E+01 0.190E+01 0.839E-10 0.962E-09 0.962E-09 0.962E-09 0.962E-09 0.192E-08 0.502E-01 0.787E-03 0.338E-02 .28913E-22 0.000E+00 0.168E+00 0.000E+00 0.000E+00 0.000E+00
BIGSUB    3        0   86.78363E+01 0.000E+00 0.000E+00 0.265E+01 0.681E+00 0.180E+03 0.212E-01 0.992E-06 0.188E+01 0.199E+01 0.585E-10 0.981E-09 0.981E-09 0.981E-09 0.981E-09 0.196E-08 0.526E-01 0.701E-03 0.223E-02 .22075E-22 0.000E+00 0.180E+00 0.000E+00 0.000E+00 0.000E+00
BIGSUB    1        0   87.87822E+01 0.000E+00 0.000E+00 0.160E+01 0.421E+00 0.180E+03 0.393E-02 0.986E-06 0.177E+01 0.186E+01 0.454E-10 0.954E-09 0.954E-09 0.954E-09 0.954E-09 0.191E-08 0.356E-01 0.643E-03 0.408E-02 .24783E-22 0.000E+00 0.166E+00 0.000E+00 0.000E+00 0.000E+00
BIGSUB    2        0   87.53442E+01 0.000E+00 0.000E+00 0.160E+01 0.427E+00 0.173E+03 0.564E-02 0.992E-06 0.181E+01 0.190E+01 0.839E-10 0.962E-09 0.962E-09 0.962E-09 0.962E-09 0.192E-08 0.373E-01 0.581E-03 0.339E-02 .27765E-22 0.000E+00 0.170E+00 0.000E+00 0.000E+00 0.000E+00
BIGSUB    3        0   87.78363E+01 0.000E+00 0.000E+00 0.157E+01 0.388E+00 0.179E+03 0.117E-01 0.992E-06 0.190E+01 0.199E+01 0.585E-10 0.981E-09 0.981E-09 0.981E-09 0.981E-09 0.196E-08 0.397E-01 0.513E-03 0.224E-02 .21988E-22 0.000E+00 0.182E+00 0.000E+00 0.000E+00 0.000E+00
BIGSUB    1        0   88.87822E+01 0.000E+00 0.000E+00 0.358E+01 0.925E+00 0.179E+03 0.217E-02 0.986E-06 0.178E+01 0.187E+01 0.454E-10 0.954E-09 0.954E-09 0.954E-09 0.954E-09 0.191E-08 0.265E-01 0.468E-03 0.406E-02 .24617E-22 0.000E+00 0.166E+00 0.000E+00 0.000E+00 0.000E+00
BIGSUB    2        0   88.53442E+01 0.000E+00 0.000E+00 0.358E+01 0.941E+00 0.172E+03 0.312E-02 0.992E-06 0.182E+01 0.191E+01 0.839E-10 0.962E-09 0.962E-09 0.962E-09 0.962E-09 0.192E-08 0.280E-01 0.433E-03 0.338E-02 .26920E-22 0.000E+00 0.170E+00 0.000E+00 0.000E+00 0.000E+00
BIGSUB    3        0   88.78363E+01 0.000E+00 0.000E+00 0.351E+01 0.853E+00 0.179E+03 0.650E-02 0.992E-06 0.191E+01 0.200E+01 0.585E-10 0.981E-09 0.981E-09 0.981E-09 0.981E-09 0.196E-08 0.303E-01 0.378E-03 0.223E-02 .21917E-22 0.000E+00 0.182E+00 0.000E+00 0.000E+00 0.000E+00
BIGSUB    1        0   89.87822E+01 0.610E+01 0.000E+00 0.310E+01 0.182E+01 0.183E+03 0.120E-02 0.270E-01 0.179E+01 0.192E+01 0.807E-03 0.129E-02 0.178E-03 0.105E-02 0.144E-04 0.299E-03 0.404E-01 0.513E-03 0.403E-02 .94932E-05 0.140E-01 0.195E+00 0.000E+00 0.000E+00 0.000E+00
BIGSUB    2        0   89.53442E+01 0.640E+01 0.000E+00 0.310E+01 0.184E+01 0.176E+03 0.173E-02 0.301E-01 0.183E+01 0.196E+01 0.984E-03 0.152E-02 0.201E-03 0.118E-02 0.167E-04 0.330E-03 0.430E-01 0.487E-03 0.335E-02 .14931E-04 0.169E-01 0.200E+00 0.000E+00 0.000E+00 0.000E+00
BIGSUB    3        0   89.78363E+01 0.810E+01 0.000E+00 0.308E+01 0.210E+01 0.184E+03 0.359E-02 0.116E+00 0.191E+01 0.214E+01 0.310E-02 0.407E-02 0.557E-03 0.261E-02 0.555E-04 0.906E-03 0.538E-01 0.460E-03 0.222E-02 .32898E-04 0.590E-01 0.218E+00 0.000E+00 0.000E+00 0.000E+00
BIGSUB    1        0   90.87822E+01 0.000E+00 0.000E+00 0.415E+01 0.167E+01 0.181E+03 0.650E-03 0.892E-04 0.179E+01 0.188E+01 0.454E-10 0.504E-05 0.673E-06 0.469E-05 0.423E-07 0.116E-05 0.297E-01 0.374E-03 0.398E-02 .40681E-11 0.000E+00 0.204E+00 0.000E+00 0.000E+00 0.000E+00
BIGSUB    2        0   90.53442E+01 0.000E+00 0.000E+00 0.414E+01 0.171E+01 0.175E+03 0.939E-03 0.991E-04 0.183E+01 0.192E+01 0.839E-10 0.553E-05 0.700E-06 0.503E-05 0.468E-07 0.117E-05 0.318E-01 0.363E-03 0.331E-02 .12588E-10 0.000E+00 0.209E+00 0.000E+00 0.000E+00 0.000E+00
BIGSUB    3        0   90.78363E+01 0.000E+00 0.000E+00 0.409E+01 0.186E+01 0.183E+03 0.194E-02 0.647E-03 0.192E+01 0.202E+01 0.585E-10 0.208E-04 0.285E-05 0.167E-04 0.272E-06 0.535E-05 0.400E-01 0.339E-03 0.219E-02 .95213E-11 0.000E+00 0.224E+00 0.000E+00 0.000E+00 0.000E+00
BIGSUB    1        0   91.87822E+01 0.000E+00 0.000E+00 0.427E+01 0.150E+01 0.180E+03 0.338E-03 0.135E-05 0.180E+01 0.188E+01 0.454E-10 0.277E-07 0.445E-08 0.255E-07 0.110E-08 0.786E-08 0.221E-01 0.275E-03 0.391E-02 .68479E-18 0.000E+00 0.186E+00 0.000E+00 0.000E+00 0.000E+00
BIGSUB    2        0   91.53442E+01 0.000E+00 0.000E+00 0.426E+01 0.153E+01 0.173E+03 0.496E-03 0.142E-05 0.183E+01 0.192E+01 0.839E-10 0.317E-07 0.478E-08 0.269E-07 0.110E-08 0.812E-08 0.238E-01 0.273E-03 0.326E-02 .21618E-17 0.000E+00 0.191E+00 0.000E+00 0.000E+00 0.000E+00
BIGSUB    3        0   91.78363E+01 0.000E+00 0.000E+00 0.421E+01 0.159E+01 0.181E+03 0.101E-02 0.905E-05 0.192E+01 0.201E+01 0.585E-10 0.256E-06 0.368E-07 0.224E-06 0.436E-08 0.746E-07 0.301E-01 0.252E-03 0.216E-02 .45419E-17 0.000E+00 0.204E+00 0.000E+00 0.000E+00 0.000E+00
BIGSUB    1        0   92.87822E+01 0.000E+00 0.000E+00 0.499E+01 0.161E+01 0.179E+03 0.161E-03 0.986E-06 0.179E+01 0.187E+01 0.454E-10 0.108E-08 0.954E-09 0.106E-08 0.954E-09 0.192E-08 0.166E-01 0.203E-03 0.384E-02 .36149E-22 0.000E+00 0.170E+00 0.000E+00 0.000E+00 0.000E+00
BIGSUB    2        0   92.53442E+01 0.000E+00 0.000E+00 0.498E+01 0.167E+01 0.172E+03 0.246E-03 0.992E-06 0.183E+01 0.191E+01 0.839E-10 0.111E-08 0.963E-09 0.107E-08 0.962E-09 0.193E-08 0.180E-01 0.208E-03 0.320E-02 .50516E-22 0.000E+00 0.174E+00 0.000E+00 0.000E+00 0.000E+00
BIGSUB    3        0   92.78363E+01 0.000E+00 0.000E+00 0.494E+01 0.171E+01 0.179E+03 0.476E-03 0.992E-06 0.192E+01 0.200E+01 0.585E-10 0.500E-08 0.129E-08 0.469E-08 0.981E-09 0.285E-08 0.230E-01 0.189E-03 0.212E-02 .12379E-21 0.000E+00 0.186E+00 0.000E+00 0.000E+00 0.000E+00
BIGSUB    1        0   93.87822E+01 0.000E+00 0.000E+00 0.421E+01 0.125E+01 0.177E+03 0.473E-04 0.986E-06 0.179E+01 0.186E+01 0.454E-10 0.954E-09 0.954E-09 0.954E-09 0.954E-09 0.191E-08 0.126E-01 0.152E-03 0.375E-02 .24360E-22 0.000E+00 0.172E+00 0.000E+00 0.000E+00 0.000E+00
BIGSUB    2        0   93.53442E+01 0.000E+00 0.000E+00 0.420E+01 0.128E+01 0.171E+03 0.896E-04 0.992E-06 0.183E+01 0.190E+01 0.839E-10 0.962E-09 0.962E-09 0.962E-09 0.962E-09 0.192E-08 0.138E-01 0.161E-03 0.313E-02 .25084E-22 0.000E+00 0.176E+00 0.000E+00 0.000E+00 0.000E+00
BIGSUB    3        0   93.78363E+01 0.000E+00 0.000E+00 0.414E+01 0.124E+01 0.178E+03 0.134E-03 0.992E-06 0.191E+01 0.199E+01 0.585E-10 0.981E-09 0.981E-09 0.981E-09 0.981E-09 0.196E-08 0.177E-01 0.144E-03 0.207E-02 .21945E-22 0.000E+00 0.187E+00 0.000E+00 0.000E+00 0.000E+00
BIGSUB    1        0   94.87822E+01 0.000E+00 0.000E+00 0.410E+01 0.115E+01 0.176E+03 0.216E-04 0.986E-06 0.178E+01 0.185E+01 0.454E-10 0.954E-09 0.954E-09 0.954E-09 0.954E-09 0.191E-08 0.974E-02 0.115E-03 0.366E-02 .24554E-22 0.000E+00 0.167E+00 0.000E+00 0.000E+00 0.000E+00
BIGSUB    2        0   94.53442E+01 0.000E+00 0.000E+00 0.409E+01 0.118E+01 0.170E+03 0.402E-04 0.992E-06 0.182E+01 0.190E+01 0.839E-10 0.962E-09 0.962E-09 0.962E-09 0.962E-09 0.192E-08 0.107E-01 0.126E-03 0.305E-02 .25149E-22 0.000E+00 0.171E+00 0.000E+00 0.000E+00 0.000E+00
BIGSUB    3        0   94.78363E+01 0.000E+00 0.000E+00 0.403E+01 0.112E+01 0.177E+03 0.457E-04 0.992E-06 0.190E+01 0.198E+01 0.585E-10 0.981E-09 0.981E-09 0.981E-09 0.981E-09 0.196E-08 0.139E-01 0.111E-03 0.202E-02 .22182E-22 0.000E+00 0.182E+00 0.000E+00 0.000E+00 0.000E+00
BIGSUB    1        0   95.87822E+01 0.130E+01 0.000E+00 0.207E+01 0.109E+01 0.177E+03 0.106E-04 0.240E-04 0.178E+01 0.185E+01 0.454E-10 0.954E-09 0.954E-09 0.485E-07 0.591E-08 0.191E-08 0.101E-01 0.310E-03 0.356E-02 .98139E-15 0.000E+00 0.161E+00 0.000E+00 0.000E+00 0.000E+00
BIGSUB    2        0   95.53442E+01 0.310E+01 0.000E+00 0.207E+01 0.118E+01 0.171E+03 0.203E-04 0.861E-03 0.181E+01 0.190E+01 0.184E-04 0.287E-04 0.384E-05 0.259E-05 0.167E-06 0.565E-05 0.177E-01 0.513E-03 0.297E-02 .14860E-08 0.497E-04 0.165E+00 0.000E+00 0.000E+00 0.000E+00
BIGSUB    3        0   95.78363E+01 0.100E+01 0.000E+00 0.202E+01 0.106E+01 0.177E+03 0.153E-04 0.992E-06 0.189E+01 0.197E+01 0.585E-10 0.981E-09 0.981E-09 0.981E-09 0.981E-09 0.196E-08 0.125E-01 0.105E-03 0.197E-02 .22415E-22 0.000E+00 0.175E+00 0.000E+00 0.000E+00 0.000E+00
BIGSUB    1        0   96.87822E+01 0.000E+00 0.000E+00 0.349E+01 0.107E+01 0.176E+03 0.584E-05 0.101E-05 0.177E+01 0.183E+01 0.454E-10 0.954E-09 0.954E-09 0.103E-08 0.955E-09 0.191E-08 0.783E-02 0.225E-03 0.346E-02 .57034E-22 0.000E+00 0.155E+00 0.000E+00 0.000E+00 0.000E+00
[...]
BIGSUB    1        0  343.87822E+01 0.000E+00 0.000E+00 0.114E+01 0.327E+00 0.153E+03 0.000E+00 0.986E-06 0.125E-01 0.231E-01 0.454E-10 0.954E-09 0.954E-09 0.954E-09 0.954E-09 0.191E-08 0.314E-02 0.589E-04 0.672E-11 .19906E-17 0.000E+00 0.213E-02 0.000E+00 0.000E+00 0.000E+00
BIGSUB    2        0  343.53442E+01 0.000E+00 0.000E+00 0.114E+01 0.314E+00 0.153E+03 0.000E+00 0.992E-06 0.333E-01 0.517E-01 0.839E-10 0.962E-09 0.962E-09 0.962E-09 0.962E-09 0.192E-08 0.332E-02 0.413E-04 0.869E-08 .11736E-17 0.000E+00 0.477E-02 0.000E+00 0.000E+00 0.000E+00
BIGSUB    3        0  343.78363E+01 0.000E+00 0.000E+00 0.110E+01 0.283E+00 0.159E+03 0.000E+00 0.992E-06 0.305E-01 0.476E-01 0.585E-10 0.981E-09 0.981E-09 0.981E-09 0.981E-09 0.196E-08 0.452E-02 0.250E-03 0.943E-08 .15061E-17 0.000E+00 0.449E-02 0.000E+00 0.000E+00 0.000E+00
BIGSUB    1        0  344.87822E+01 0.000E+00 0.000E+00 0.438E+00 0.126E+00 0.153E+03 0.000E+00 0.986E-06 0.127E-01 0.224E-01 0.454E-10 0.954E-09 0.954E-09 0.954E-09 0.954E-09 0.191E-08 0.236E-02 0.453E-04 0.809E-11 .29138E-17 0.000E+00 0.207E-02 0.000E+00 0.000E+00 0.000E+00
BIGSUB    2        0  344.53442E+01 0.000E+00 0.000E+00 0.437E+00 0.121E+00 0.153E+03 0.000E+00 0.992E-06 0.338E-01 0.512E-01 0.839E-10 0.962E-09 0.962E-09 0.962E-09 0.962E-09 0.192E-08 0.252E-02 0.315E-04 0.861E-08 .15821E-17 0.000E+00 0.474E-02 0.000E+00 0.000E+00 0.000E+00
BIGSUB    3        0  344.78363E+01 0.000E+00 0.000E+00 0.418E+00 0.106E+00 0.159E+03 0.000E+00 0.992E-06 0.310E-01 0.469E-01 0.585E-10 0.981E-09 0.981E-09 0.981E-09 0.981E-09 0.196E-08 0.351E-02 0.183E-03 0.949E-08 .22596E-17 0.000E+00 0.443E-02 0.000E+00 0.000E+00 0.000E+00
BIGSUB    1        0  345.87822E+01 0.300E+00 0.000E+00 0.180E+01 0.654E+00 0.153E+03 0.000E+00 0.986E-06 0.894E-02 0.181E-01 0.454E-10 0.954E-09 0.954E-09 0.954E-09 0.954E-09 0.191E-08 0.179E-02 0.352E-04 0.925E-11 .41266E-17 0.000E+00 0.162E-02 0.000E+00 0.000E+00 0.000E+00
BIGSUB    2        0  345.53442E+01 0.800E+00 0.000E+00 0.179E+01 0.918E+00 0.152E+03 0.000E+00 0.992E-06 0.324E-01 0.498E-01 0.839E-10 0.962E-09 0.962E-09 0.962E-09 0.962E-09 0.192E-08 0.258E-02 0.655E-04 0.765E-08 .14869E-17 0.000E+00 0.447E-02 0.000E+00 0.000E+00 0.000E+00
BIGSUB    3        0  345.78363E+01 0.300E+00 0.000E+00 0.176E+01 0.596E+00 0.159E+03 0.000E+00 0.992E-06 0.290E-01 0.441E-01 0.585E-10 0.981E-09 0.981E-09 0.981E-09 0.981E-09 0.196E-08 0.276E-02 0.135E-03 0.881E-08 .33206E-17 0.000E+00 0.404E-02 0.000E+00 0.000E+00 0.000E+00
BIGSUB    1        0  346.87822E+01 0.300E+00 0.000E+00 0.323E+00 0.138E+00 0.153E+03 0.000E+00 0.986E-06 0.925E-02 0.179E-01 0.454E-10 0.954E-09 0.954E-09 0.954E-09 0.954E-09 0.191E-08 0.138E-02 0.279E-04 0.102E-10 .56116E-17 0.000E+00 0.173E-02 0.000E+00 0.000E+00 0.000E+00
BIGSUB    2        0  346.53442E+01 0.300E+00 0.000E+00 0.322E+00 0.145E+00 0.153E+03 0.000E+00 0.992E-06 0.328E-01 0.494E-01 0.839E-10 0.962E-09 0.962E-09 0.962E-09 0.962E-09 0.192E-08 0.196E-02 0.481E-04 0.749E-08 .19527E-17 0.000E+00 0.480E-02 0.000E+00 0.000E+00 0.000E+00
BIGSUB    3        0  346.78363E+01 0.300E+00 0.000E+00 0.314E+00 0.127E+00 0.159E+03 0.000E+00 0.992E-06 0.294E-01 0.438E-01 0.585E-10 0.981E-09 0.981E-09 0.981E-09 0.981E-09 0.196E-08 0.220E-02 0.101E-03 0.880E-08 .48132E-17 0.000E+00 0.434E-02 0.000E+00 0.000E+00 0.000E+00
BIGSUB    1        0  347.87822E+01 0.160E+02 0.000E+00 0.760E-01 0.521E-01 0.168E+03 0.142E+00 0.776E+00 0.973E-02 0.923E+00 0.986E-02 0.190E-01 0.346E-02 0.492E-01 0.667E-03 0.341E-02 0.130E+00 0.400E-02 0.157E-08 .22683E-02 0.411E+00 0.334E-01 0.000E+00 0.000E+00 0.000E+00
BIGSUB    2        0  347.53442E+01 0.206E+02 0.000E+00 0.754E-01 0.512E-01 0.170E+03 0.414E+00 0.218E+01 0.336E-01 0.239E+01 0.274E-01 0.500E-01 0.906E-02 0.921E-01 0.181E-02 0.917E-02 0.162E+00 0.337E-02 0.234E-07 .52912E-02 0.119E+01 0.708E-01 0.000E+00 0.000E+00 0.000E+00
BIGSUB    3        0  347.78363E+01 0.191E+02 0.000E+00 0.674E-01 0.458E-01 0.175E+03 0.279E+00 0.187E+01 0.301E-01 0.207E+01 0.484E-01 0.734E-01 0.124E-01 0.134E+00 0.269E-02 0.151E-01 0.151E+00 0.153E-01 0.219E-07 .74520E-02 0.264E+01 0.651E-01 0.000E+00 0.000E+00 0.000E+00
BIGSUB    1        0  348.87822E+01 0.300E+00 0.000E+00 0.251E+00 0.179E+00 0.168E+03 0.171E-01 0.143E-01 0.102E-01 0.127E+00 0.454E-10 0.405E-03 0.784E-04 0.101E-02 0.135E-04 0.701E-04 0.953E-01 0.293E-02 0.302E-08 .28962E-05 0.000E+00 0.137E-01 0.000E+00 0.000E+00 0.000E+00
BIGSUB    2        0  348.53442E+01 0.000E+00 0.000E+00 0.250E+00 0.177E+00 0.170E+03 0.189E-01 0.230E-01 0.344E-01 0.187E+00 0.839E-10 0.634E-03 0.120E-03 0.116E-02 0.207E-04 0.111E-03 0.115E+00 0.240E-02 0.416E-07 .92561E-05 0.000E+00 0.202E-01 0.000E+00 0.000E+00 0.000E+00
BIGSUB    3        0  348.78363E+01 0.000E+00 0.000E+00 0.239E+00 0.170E+00 0.175E+03 0.487E-01 0.204E-01 0.308E-01 0.171E+00 0.585E-10 0.103E-02 0.187E-03 0.219E-02 0.443E-04 0.230E-03 0.108E+00 0.108E-01 0.381E-07 .11401E-04 0.000E+00 0.188E-01 0.000E+00 0.000E+00 0.000E+00
BIGSUB    1        0  349.87822E+01 0.000E+00 0.000E+00 0.134E+01 0.915E+00 0.167E+03 0.236E-02 0.417E-03 0.105E-01 0.858E-01 0.454E-10 0.117E-04 0.230E-05 0.287E-04 0.389E-06 0.201E-05 0.678E-01 0.209E-02 0.451E-08 .24566E-09 0.000E+00 0.887E-02 0.000E+00 0.000E+00 0.000E+00
BIGSUB    2        0  349.53442E+01 0.000E+00 0.000E+00 0.134E+01 0.883E+00 0.169E+03 0.602E-02 0.361E-03 0.349E-01 0.132E+00 0.839E-10 0.101E-04 0.195E-05 0.185E-04 0.329E-06 0.174E-05 0.820E-01 0.171E-02 0.603E-07 .17759E-09 0.000E+00 0.136E-01 0.000E+00 0.000E+00 0.000E+00
BIGSUB    3        0  349.78363E+01 0.000E+00 0.000E+00 0.130E+01 0.858E+00 0.174E+03 0.248E-01 0.369E-03 0.313E-01 0.121E+00 0.585E-10 0.195E-04 0.359E-05 0.425E-04 0.870E-06 0.441E-05 0.771E-01 0.765E-02 0.547E-07 .33620E-09 0.000E+00 0.128E-01 0.000E+00 0.000E+00 0.000E+00
BIGSUB    1        0  350.87822E+01 0.000E+00 0.000E+00 0.893E+00 0.463E+00 0.167E+03 0.120E-02 0.133E-04 0.108E-01 0.661E-01 0.454E-10 0.357E-06 0.708E-07 0.875E-06 0.124E-07 0.622E-07 0.483E-01 0.149E-02 0.597E-08 .14126E-13 0.000E+00 0.646E-02 0.000E+00 0.000E+00 0.000E+00
BIGSUB    2        0  350.53442E+01 0.000E+00 0.000E+00 0.891E+00 0.458E+00 0.169E+03 0.300E-02 0.683E-05 0.321E-01 0.105E+00 0.839E-10 0.176E-06 0.347E-07 0.323E-06 0.635E-08 0.311E-07 0.586E-01 0.122E-02 0.791E-07 .20618E-14 0.000E+00 0.103E-01 0.000E+00 0.000E+00 0.000E+00
BIGSUB    3        0  350.78363E+01 0.000E+00 0.000E+00 0.870E+00 0.446E+00 0.174E+03 0.136E-01 0.793E-05 0.294E-01 0.966E-01 0.585E-10 0.391E-06 0.728E-07 0.860E-06 0.183E-07 0.900E-07 0.554E-01 0.542E-02 0.716E-07 .56447E-14 0.000E+00 0.965E-02 0.000E+00 0.000E+00 0.000E+00
BIGSUB    1        0  351.87822E+01 0.310E+01 0.000E+00 0.139E+01 0.101E+01 0.168E+03 0.675E-01 0.106E-02 0.971E-02 0.760E-01 0.165E-05 0.327E-05 0.459E-06 0.369E-04 0.417E-06 0.583E-06 0.583E-01 0.175E-02 0.806E-08 .46136E-06 0.602E-04 0.679E-02 0.000E+00 0.000E+00 0.000E+00
BIGSUB    2        0  351.53442E+01 0.280E+01 0.000E+00 0.139E+01 0.996E+00 0.170E+03 0.123E+00 0.653E-03 0.264E-01 0.102E+00 0.686E-06 0.131E-05 0.179E-06 0.290E-04 0.226E-06 0.170E-06 0.612E-01 0.133E-02 0.101E-06 .16834E-06 0.323E-04 0.919E-02 0.000E+00 0.000E+00 0.000E+00
BIGSUB    3        0  351.78363E+01 0.230E+01 0.000E+00 0.136E+01 0.984E+00 0.175E+03 0.351E-01 0.165E-03 0.251E-01 0.908E-01 0.168E-06 0.317E-06 0.464E-07 0.723E-05 0.641E-07 0.645E-07 0.537E-01 0.483E-02 0.891E-07 .27700E-07 0.850E-06 0.833E-02 0.000E+00 0.000E+00 0.000E+00
BIGSUB    1        0  352.87822E+01 0.191E+02 0.000E+00 0.225E+00 0.161E+00 0.183E+03 0.120E+01 0.205E+01 0.116E-01 0.232E+01 0.213E-01 0.407E-01 0.748E-02 0.170E-01 0.170E-02 0.769E-02 0.251E+00 0.812E-02 0.343E-07 .19793E-02 0.883E+00 0.690E-01 0.000E+00 0.000E+00 0.000E+00
BIGSUB    2        0  352.53442E+01 0.170E+02 0.000E+00 0.224E+00 0.160E+00 0.179E+03 0.576E+01 0.178E+01 0.299E-01 0.206E+01 0.193E-01 0.349E-01 0.631E-02 0.195E-01 0.142E-02 0.664E-02 0.231E+00 0.536E-02 0.239E-06 .18906E-02 0.806E+00 0.611E-01 0.000E+00 0.000E+00 0.000E+00
BIGSUB    3        0  352.78363E+01 0.152E+02 0.000E+00 0.212E+00 0.151E+00 0.184E+03 0.414E+01 0.133E+01 0.279E-01 0.159E+01 0.291E-01 0.450E-01 0.758E-02 0.250E-01 0.180E-02 0.972E-02 0.211E+00 0.208E-01 0.176E-06 .22913E-02 0.156E+01 0.513E-01 0.000E+00 0.000E+00 0.000E+00
BIGSUB    1        0  353.87822E+01 0.000E+00 0.000E+00 0.204E+01 0.134E+01 0.182E+03 0.118E+00 0.393E-01 0.126E-01 0.237E+00 0.454E-10 0.929E-03 0.180E-03 0.371E-03 0.357E-04 0.168E-03 0.179E+00 0.577E-02 0.689E-07 .48844E-05 0.000E+00 0.234E-01 0.000E+00 0.000E+00 0.000E+00
BIGSUB    2        0  353.53442E+01 0.000E+00 0.000E+00 0.204E+01 0.133E+01 0.177E+03 0.259E+00 0.192E-01 0.369E-01 0.235E+00 0.839E-10 0.451E-03 0.850E-04 0.247E-03 0.167E-04 0.825E-04 0.165E+00 0.382E-02 0.501E-06 .13258E-05 0.000E+00 0.233E-01 0.000E+00 0.000E+00 0.000E+00
BIGSUB    3        0  353.78363E+01 0.000E+00 0.000E+00 0.201E+01 0.131E+01 0.183E+03 0.338E+00 0.149E-01 0.276E-01 0.205E+00 0.585E-10 0.645E-03 0.116E-03 0.394E-03 0.299E-04 0.152E-03 0.151E+00 0.147E-01 0.280E-06 .13005E-05 0.000E+00 0.207E-01 0.000E+00 0.000E+00 0.000E+00
BIGSUB    1        0  354.87822E+01 0.000E+00 0.000E+00 0.177E+01 0.866E+00 0.181E+03 0.441E-01 0.115E-02 0.136E-01 0.149E+00 0.454E-10 0.272E-04 0.532E-05 0.109E-04 0.104E-05 0.487E-05 0.127E+00 0.410E-02 0.109E-06 .55259E-09 0.000E+00 0.146E-01 0.000E+00 0.000E+00 0.000E+00
BIGSUB    2        0  354.53442E+01 0.000E+00 0.000E+00 0.176E+01 0.859E+00 0.176E+03 0.782E-01 0.303E-03 0.392E-01 0.171E+00 0.839E-10 0.726E-05 0.140E-05 0.400E-05 0.269E-06 0.130E-05 0.118E+00 0.272E-02 0.823E-06 .14704E-10 0.000E+00 0.169E-01 0.000E+00 0.000E+00 0.000E+00
BIGSUB    3        0  354.78363E+01 0.000E+00 0.000E+00 0.172E+01 0.821E+00 0.182E+03 0.121E+00 0.273E-03 0.264E-01 0.146E+00 0.585E-10 0.123E-04 0.225E-05 0.763E-05 0.587E-06 0.293E-05 0.108E+00 0.104E-01 0.393E-06 .29173E-10 0.000E+00 0.147E-01 0.000E+00 0.000E+00 0.000E+00
BIGSUB    1        0  355.87822E+01 0.173E+02 0.000E+00 0.213E+01 0.141E+01 0.186E+03 0.811E+01 0.202E+01 0.210E-01 0.233E+01 0.902E-02 0.178E-01 0.328E-02 0.257E-01 0.173E-02 0.339E-02 0.287E+00 0.810E-02 0.228E-06 .14717E-02 0.376E+00 0.932E-01 0.000E+00 0.000E+00 0.000E+00
BIGSUB    2        0  355.53442E+01 0.158E+02 0.000E+00 0.213E+01 0.140E+01 0.181E+03 0.719E+01 0.152E+01 0.561E-01 0.185E+01 0.197E-01 0.356E-01 0.640E-02 0.203E-01 0.124E-02 0.686E-02 0.259E+00 0.562E-02 0.179E-05 .18229E-02 0.804E+00 0.663E-01 0.000E+00 0.000E+00 0.000E+00
BIGSUB    3        0  355.78363E+01 0.147E+02 0.000E+00 0.213E+01 0.140E+01 0.187E+03 0.560E+01 0.131E+01 0.389E-01 0.160E+01 0.277E-01 0.426E-01 0.716E-02 0.262E-01 0.170E-02 0.934E-02 0.243E+00 0.211E-01 0.138E-05 .21365E-02 0.145E+01 0.603E-01 0.000E+00 0.000E+00 0.000E+00
BIGSUB    1        0  356.87822E+01 0.000E+00 0.000E+00 0.371E+01 0.164E+01 0.184E+03 0.336E+00 0.395E-01 0.283E-01 0.279E+00 0.454E-10 0.416E-03 0.804E-04 0.574E-03 0.368E-04 0.762E-04 0.204E+00 0.575E-02 0.377E-06 .33800E-05 0.000E+00 0.304E-01 0.000E+00 0.000E+00 0.000E+00
BIGSUB    2        0  356.53442E+01 0.000E+00 0.000E+00 0.372E+01 0.162E+01 0.179E+03 0.340E+00 0.155E-01 0.721E-01 0.287E+00 0.839E-10 0.449E-03 0.841E-04 0.247E-03 0.139E-04 0.832E-04 0.185E+00 0.400E-02 0.300E-05 .53272E-06 0.000E+00 0.313E-01 0.000E+00 0.000E+00 0.000E+00
BIGSUB    3        0  356.78363E+01 0.000E+00 0.000E+00 0.372E+01 0.161E+01 0.185E+03 0.464E+00 0.139E-01 0.506E-01 0.250E+00 0.585E-10 0.604E-03 0.109E-03 0.414E-03 0.273E-04 0.145E-03 0.174E+00 0.149E-01 0.301E-05 .67441E-06 0.000E+00 0.279E-01 0.000E+00 0.000E+00 0.000E+00
BIGSUB    1        0  357.87822E+01 0.000E+00 0.000E+00 0.275E+01 0.104E+01 0.183E+03 0.981E-01 0.116E-02 0.350E-01 0.189E+00 0.454E-10 0.123E-04 0.239E-05 0.168E-04 0.108E-05 0.223E-05 0.145E+00 0.410E-02 0.541E-06 .37118E-09 0.000E+00 0.209E-01 0.000E+00 0.000E+00 0.000E+00
BIGSUB    2        0  357.53442E+01 0.000E+00 0.000E+00 0.275E+01 0.105E+01 0.178E+03 0.101E+00 0.243E-03 0.871E-01 0.234E+00 0.839E-10 0.716E-05 0.137E-05 0.396E-05 0.221E-06 0.130E-05 0.133E+00 0.286E-02 0.433E-05 .40277E-11 0.000E+00 0.260E-01 0.000E+00 0.000E+00 0.000E+00
BIGSUB    3        0  357.78363E+01 0.000E+00 0.000E+00 0.274E+01 0.102E+01 0.184E+03 0.161E+00 0.253E-03 0.632E-01 0.200E+00 0.585E-10 0.114E-04 0.209E-05 0.802E-05 0.536E-06 0.279E-05 0.125E+00 0.106E-01 0.498E-05 .96397E-11 0.000E+00 0.227E-01 0.000E+00 0.000E+00 0.000E+00
BIGSUB    1        0  358.87822E+01 0.000E+00 0.000E+00 0.122E+01 0.475E+00 0.183E+03 0.428E-01 0.361E-04 0.413E-01 0.152E+00 0.454E-10 0.376E-06 0.739E-07 0.516E-06 0.336E-07 0.691E-07 0.104E+00 0.292E-02 0.709E-06 .22030E-13 0.000E+00 0.164E-01 0.000E+00 0.000E+00 0.000E+00
BIGSUB    2        0  358.53442E+01 0.000E+00 0.000E+00 0.122E+01 0.483E+00 0.178E+03 0.478E-01 0.483E-05 0.101E+00 0.211E+00 0.839E-10 0.125E-06 0.246E-07 0.699E-07 0.448E-08 0.236E-07 0.951E-01 0.204E-02 0.573E-05 .28354E-16 0.000E+00 0.227E-01 0.000E+00 0.000E+00 0.000E+00
BIGSUB    3        0  358.78363E+01 0.000E+00 0.000E+00 0.120E+01 0.458E+00 0.184E+03 0.715E-01 0.567E-05 0.748E-01 0.177E+00 0.585E-10 0.230E-06 0.428E-07 0.163E-06 0.115E-07 0.574E-07 0.902E-01 0.750E-02 0.712E-05 .10566E-15 0.000E+00 0.194E-01 0.000E+00 0.000E+00 0.000E+00
BIGSUB    1        0  359.87822E+01 0.117E+02 0.000E+00 0.810E+00 0.596E+00 0.188E+03 0.481E+01 0.603E+00 0.503E-01 0.850E+00 0.696E-02 0.137E-01 0.248E-02 0.140E-01 0.527E-03 0.264E-02 0.189E+00 0.475E-02 0.991E-06 .80728E-03 0.270E+00 0.395E-01 0.000E+00 0.000E+00 0.000E+00
BIGSUB    2        0  359.53442E+01 0.107E+02 0.000E+00 0.810E+00 0.594E+00 0.183E+03 0.435E+01 0.424E+00 0.121E+00 0.728E+00 0.464E-02 0.904E-02 0.159E-02 0.965E-02 0.356E-03 0.174E-02 0.169E+00 0.331E-02 0.782E-05 .45182E-03 0.189E+00 0.437E-01 0.000E+00 0.000E+00 0.000E+00
BIGSUB    3        0  359.78363E+01 0.970E+01 0.000E+00 0.810E+00 0.595E+00 0.189E+03 0.325E+01 0.304E+00 0.898E-01 0.561E+00 0.511E-02 0.769E-02 0.125E-02 0.950E-02 0.352E-03 0.164E-02 0.155E+00 0.111E-01 0.104E-04 .34061E-03 0.239E+00 0.364E-01 0.000E+00 0.000E+00 0.000E+00
BIGSUB    1        0  360.87822E+01 0.910E+01 0.000E+00 0.224E+01 0.155E+01 0.188E+03 0.651E+01 0.276E+00 0.624E-01 0.603E+00 0.454E-10 0.684E-02 0.122E-02 0.307E-02 0.237E-03 0.131E-02 0.257E+00 0.657E-02 0.145E-05 .19220E-03 0.118E-08 0.571E-01 0.000E+00 0.000E+00 0.000E+00
BIGSUB    2        0  360.53442E+01 0.990E+01 0.000E+00 0.224E+01 0.155E+01 0.183E+03 0.757E+01 0.374E+00 0.148E+00 0.787E+00 0.416E-03 0.966E-02 0.170E-02 0.343E-02 0.316E-03 0.187E-02 0.251E+00 0.509E-02 0.117E-04 .27139E-03 0.177E-01 0.650E-01 0.000E+00 0.000E+00 0.000E+00
BIGSUB    3        0  360.78363E+01 0.152E+02 0.000E+00 0.228E+01 0.157E+01 0.190E+03 0.100E+02 0.163E+01 0.117E+00 0.206E+01 0.246E-01 0.453E-01 0.758E-02 0.125E-01 0.199E-02 0.102E-01 0.304E+00 0.222E-01 0.196E-04 .16827E-02 0.123E+01 0.889E-01 0.000E+00 0.000E+00 0.000E+00
BIGSUB    1        0  361.87822E+01 0.740E+01 0.000E+00 0.207E+01 0.137E+01 0.189E+03 0.505E+01 0.978E-01 0.763E-01 0.455E+00 0.618E-03 0.141E-02 0.238E-03 0.936E-03 0.771E-04 0.261E-03 0.273E+00 0.679E-02 0.210E-05 .33067E-04 0.184E-01 0.418E-01 0.000E+00 0.000E+00 0.000E+00
BIGSUB    2        0  361.53442E+01 0.640E+01 0.000E+00 0.207E+01 0.136E+01 0.183E+03 0.448E+01 0.460E-01 0.179E+00 0.493E+00 0.323E-04 0.661E-03 0.103E-03 0.450E-03 0.361E-04 0.120E-03 0.253E+00 0.503E-02 0.169E-04 .17819E-04 0.217E-02 0.493E-01 0.000E+00 0.000E+00 0.000E+00
BIGSUB    3        0  361.78363E+01 0.130E+02 0.000E+00 0.206E+01 0.136E+01 0.191E+03 0.919E+01 0.107E+01 0.153E+00 0.161E+01 0.244E-02 0.380E-01 0.631E-02 0.827E-02 0.127E-02 0.852E-02 0.376E+00 0.259E-01 0.377E-04 .10893E-02 0.145E+00 0.140E+00 0.000E+00 0.000E+00 0.000E+00
BIGSUB    1        0  362.87822E+01 0.000E+00 0.000E+00 0.165E+01 0.784E+00 0.188E+03 0.369E+00 0.127E-02 0.894E-01 0.293E+00 0.454E-10 0.227E-04 0.424E-05 0.142E-04 0.122E-05 0.422E-05 0.195E+00 0.484E-02 0.277E-05 .35873E-09 0.000E+00 0.323E-01 0.000E+00 0.000E+00 0.000E+00
BIGSUB    2        0  362.53442E+01 0.000E+00 0.000E+00 0.165E+01 0.773E+00 0.182E+03 0.362E+00 0.242E-03 0.208E+00 0.405E+00 0.839E-10 0.480E-05 0.821E-06 0.274E-05 0.216E-06 0.896E-06 0.181E+00 0.358E-02 0.223E-04 .14432E-09 0.000E+00 0.446E-01 0.000E+00 0.000E+00 0.000E+00
BIGSUB    3        0  362.78363E+01 0.000E+00 0.000E+00 0.162E+01 0.745E+00 0.189E+03 0.117E+01 0.105E-01 0.189E+00 0.482E+00 0.585E-10 0.516E-03 0.922E-04 0.112E-03 0.191E-04 0.127E-03 0.270E+00 0.183E-01 0.583E-04 .73934E-07 0.000E+00 0.542E-01 0.000E+00 0.000E+00 0.000E+00
BIGSUB    1        0  363.87822E+01 0.000E+00 0.000E+00 0.646E+00 0.288E+00 0.187E+03 0.124E+00 0.355E-04 0.101E+00 0.249E+00 0.454E-10 0.613E-06 0.118E-06 0.382E-06 0.339E-07 0.115E-06 0.139E+00 0.345E-02 0.345E-05 .11923E-13 0.000E+00 0.278E-01 0.000E+00 0.000E+00 0.000E+00
BIGSUB    2        0  363.53442E+01 0.000E+00 0.000E+00 0.645E+00 0.287E+00 0.182E+03 0.124E+00 0.318E-05 0.234E+00 0.380E+00 0.839E-10 0.574E-07 0.109E-07 0.297E-07 0.290E-08 0.117E-07 0.130E+00 0.256E-02 0.276E-04 .66812E-16 0.000E+00 0.425E-01 0.000E+00 0.000E+00 0.000E+00
BIGSUB    3        0  363.78363E+01 0.000E+00 0.000E+00 0.631E+00 0.273E+00 0.188E+03 0.448E+00 0.186E-03 0.221E+00 0.429E+00 0.585E-10 0.965E-05 0.175E-05 0.210E-05 0.371E-06 0.243E-05 0.194E+00 0.130E-01 0.799E-04 .60954E-12 0.000E+00 0.490E-01 0.000E+00 0.000E+00 0.000E+00
BIGSUB    1        0  364.87822E+01 0.201E+02 0.000E+00 0.103E+01 0.751E+00 0.190E+03 0.121E+02 0.334E+01 0.140E+00 0.381E+01 0.642E-01 0.115E+00 0.209E-01 0.269E-01 0.289E-02 0.232E-01 0.322E+00 0.754E-02 0.976E-05 .49419E-02 0.252E+01 0.142E+00 0.000E+00 0.000E+00 0.000E+00
BIGSUB    2        0  364.53442E+01 0.244E+02 0.000E+00 0.103E+01 0.746E+00 0.184E+03 0.149E+02 0.486E+01 0.279E+00 0.551E+01 0.226E-01 0.382E-01 0.676E-02 0.309E-01 0.388E-02 0.786E-02 0.355E+00 0.652E-02 0.404E-04 .23368E-02 0.946E+00 0.274E+00 0.000E+00 0.000E+00 0.000E+00
BIGSUB    3        0  364.78363E+01 0.216E+02 0.000E+00 0.103E+01 0.747E+00 0.192E+03 0.125E+02 0.393E+01 0.267E+00 0.458E+01 0.115E+00 0.158E+00 0.264E-01 0.313E-01 0.458E-02 0.366E-01 0.376E+00 0.218E-01 0.122E-03 .60667E-02 0.542E+01 0.201E+00 0.000E+00 0.000E+00 0.000E+00
BIGSUB    1        0  365.87822E+01 0.000E+00 0.000E+00 0.166E+01 0.875E+00 0.189E+03 0.678E+00 0.602E-01 0.177E+00 0.476E+00 0.454E-10 0.258E-02 0.492E-03 0.575E-03 0.584E-04 0.496E-03 0.230E+00 0.537E-02 0.180E-04 .10505E-04 0.000E+00 0.541E-01 0.000E+00 0.000E+00 0.000E+00
BIGSUB    2        0  365.53442E+01 0.000E+00 0.000E+00 0.166E+01 0.865E+00 0.183E+03 0.828E+00 0.460E-01 0.320E+00 0.637E+00 0.839E-10 0.480E-03 0.887E-04 0.357E-03 0.418E-04 0.942E-04 0.254E+00 0.465E-02 0.536E-04 .97047E-06 0.000E+00 0.725E-01 0.000E+00 0.000E+00 0.000E+00
BIGSUB    3        0  365.78363E+01 0.000E+00 0.000E+00 0.163E+01 0.843E+00 0.190E+03 0.131E+01 0.386E-01 0.310E+00 0.634E+00 0.585E-10 0.223E-02 0.399E-03 0.429E-03 0.694E-04 0.563E-03 0.271E+00 0.155E-01 0.167E-03 .21259E-05 0.000E+00 0.736E-01 0.000E+00 0.000E+00 0.000E+00
BIGSUB    1        0  366.87822E+01 0.000E+00 0.000E+00 0.131E+01 0.614E+00 0.188E+03 0.197E+00 0.175E-02 0.211E+00 0.388E+00 0.454E-10 0.752E-04 0.145E-04 0.168E-04 0.170E-05 0.143E-04 0.164E+00 0.383E-02 0.283E-04 .67523E-09 0.000E+00 0.413E-01 0.000E+00 0.000E+00 0.000E+00
BIGSUB    2        0  366.53442E+01 0.000E+00 0.000E+00 0.131E+01 0.610E+00 0.182E+03 0.231E+00 0.705E-03 0.358E+00 0.558E+00 0.839E-10 0.763E-05 0.144E-05 0.572E-05 0.661E-06 0.146E-05 0.182E+00 0.332E-02 0.665E-04 .70937E-11 0.000E+00 0.595E-01 0.000E+00 0.000E+00 0.000E+00
BIGSUB    3        0  366.78363E+01 0.000E+00 0.000E+00 0.128E+01 0.578E+00 0.189E+03 0.472E+00 0.689E-03 0.352E+00 0.563E+00 0.585E-10 0.421E-04 0.765E-05 0.813E-05 0.135E-05 0.108E-04 0.195E+00 0.110E-01 0.211E-03 .22525E-10 0.000E+00 0.613E-01 0.000E+00 0.000E+00 0.000E+00
