1
    SWAT Jun 01 2011    VER 2009/Rev. 481                                                                0/ 0/   0      0: 0: 0

    General Input/Output section (file.cio):                                        
    11/14/2011 12:00:00 AM ARCGIS-SWAT interface AV                                 
                                                                                    


       SUB      GIS  MON   AREAkm2  PRECIPmm SNOMELTmm     PETmm      ETmm      SWmm    PERCmm    SURQmm    GW_Qmm    WYLDmm  SYLDt/ha ORGNkg/ha ORGPkg/haNSURQkg/ha SOLPkg/ha SEDPkg/ha LAT Q(mm)LATNO3kg/hGWNO3kg/haCHOLAkg/haCBODUkg/ha DOXQkg/ha
BIGSUB   1        0    1.12360E+04    51.400     6.075    15.052     7.358    94.410     0.000     0.113     0.000     0.181     0.000     0.000     0.000     0.001     0.000     0.000     0.068     0.000     0.000 .00000E+00 0.000E+00 0.000E+00
BIGSUB   2        0    1.37400E+03    51.400     6.075    15.113     7.418    90.475     0.000     0.064     0.000     0.471     0.000     0.000     0.000     0.001     0.000     0.000     0.407     0.002     0.000 .00000E+00 0.000E+00 0.000E+00
BIGSUB   3        0    1.14590E+04    51.400     6.075    15.050     7.318    84.358     0.000     0.048     0.000     0.133     0.000     0.000     0.000     0.000     0.000     0.000     0.085     0.000     0.000 .00000E+00 0.000E+00 0.000E+00
BIGSUB   4        0    1.91800E+03    51.400     6.075    15.061     7.346    90.411     0.000     0.081     0.000     0.147     0.000     0.000     0.000     0.001     0.000     0.000     0.066     0.000     0.000 .00000E+00 0.000E+00 0.000E+00
BIGSUB   5        0    1.37770E+04    51.400     6.075    15.160     7.449    83.982     0.000     0.046     0.000     0.101     0.000     0.000     0.000     0.000     0.000     0.000     0.056     0.000     0.000 .00000E+00 0.000E+00 0.000E+00
BIGSUB   6        0    1.18250E+04    51.400     6.075    15.279     7.510    73.154     0.000     0.001     0.000     0.065     0.000     0.000     0.000     0.000     0.000     0.000     0.064     0.000     0.000 .00000E+00 0.000E+00 0.000E+00
BIGSUB   7        0    1.14660E+04    51.400     6.075    15.290     7.497    89.847     0.000     0.590     0.000     0.601     0.000     0.000     0.000     0.003     0.000     0.000     0.011     0.000     0.000 .00000E+00 0.000E+00 0.000E+00
BIGSUB   8        0    1.34940E+04    51.400     6.075    15.520     7.593    95.123     0.000     0.416     0.000     0.491     0.001     0.002     0.000     0.002     0.000     0.000     0.075     0.001     0.000 .00000E+00 0.000E+00 0.000E+00
BIGSUB   9        0    1.47420E+04    26.400     5.987    16.126     6.188    41.661     0.000     0.000     0.000     0.012     0.000     0.000     0.000     0.000     0.000     0.000     0.012     0.000     0.000 .00000E+00 0.000E+00 0.000E+00
BIGSUB  10        0    1.13380E+04    26.400     5.987    16.283     8.488    47.666     0.000     0.000     0.000     0.011     0.000     0.000     0.000     0.000     0.000     0.000     0.011     0.000     0.000 .00000E+00 0.000E+00 0.000E+00
BIGSUB  11        0    1.24060E+04    38.272    37.882    20.882     9.193    63.109     0.000     2.457     0.055     2.535     0.007     0.014     0.002     0.007     0.000     0.001     0.022     0.000     0.002 .00000E+00 0.000E+00 0.000E+00
BIGSUB  12        0    1.19770E+04    46.500     6.175    14.944     7.236    58.302     0.000     0.000     0.000     0.012     0.000     0.000     0.000     0.000     0.000     0.000     0.012     0.000     0.000 .00000E+00 0.000E+00 0.000E+00
BIGSUB  13        0    1.16410E+04    38.272    37.879    21.038    10.802    70.114     0.000     4.977     0.133     5.127     0.009     0.020     0.002     0.013     0.001     0.001     0.017     0.000     0.005 .00000E+00 0.000E+00 0.000E+00
BIGSUB  14        0    1.52740E+04    46.500     6.175    15.141     7.264    73.251     0.000     0.065     0.000     0.090     0.000     0.000     0.000     0.000     0.000     0.000     0.025     0.000     0.000 .00000E+00 0.000E+00 0.000E+00
BIGSUB  15        0    1.42200E+03    38.272    37.876    21.185    10.236    67.930     0.000     3.586     0.101     3.701     0.004     0.009     0.001     0.010     0.001     0.001     0.015     0.000     0.004 .00000E+00 0.000E+00 0.000E+00
BIGSUB  16        0    1.13850E+04    38.272    37.874    21.310     8.161    58.185     0.000     0.000     0.000     0.015     0.000     0.000     0.000     0.000     0.000     0.000     0.015     0.000     0.000 .00000E+00 0.000E+00 0.000E+00
BIGSUB  17        0    1.17180E+04    46.500     6.175    15.342     7.342    74.946     0.000     0.172     0.000     0.181     0.000     0.000     0.000     0.001     0.000     0.000     0.010     0.000     0.000 .00000E+00 0.000E+00 0.000E+00
BIGSUB  18        0    1.26090E+04    46.500     6.175    15.277     7.276    57.819     0.000     0.000     0.000     0.018     0.000     0.000     0.000     0.000     0.000     0.000     0.018     0.000     0.000 .00000E+00 0.000E+00 0.000E+00
BIGSUB  19        0    1.25380E+04    46.500     6.175    15.474     7.302    73.935     0.000     0.014     0.000     0.052     0.000     0.000     0.000     0.000     0.000     0.000     0.038     0.000     0.000 .00000E+00 0.000E+00 0.000E+00
BIGSUB  20        0    1.19820E+04    46.500     6.175    15.535     7.275    79.685     0.000     0.018     0.000     0.066     0.000     0.000     0.000     0.000     0.000     0.000     0.047     0.000     0.000 .00000E+00 0.000E+00 0.000E+00
BIGSUB   1        0    2.12360E+04    40.600    34.138    25.836    17.410   111.978     8.475     6.713     0.961     7.725     0.025     0.055     0.007     0.015     0.001     0.003     0.051     0.000     0.162 .00000E+00 0.000E+00 0.000E+00
BIGSUB   2        0    2.37400E+03    40.600    34.137    25.908    17.359   110.933     6.310     5.781     0.672     6.700     0.052     0.107     0.013     0.013     0.001     0.006     0.247     0.003     0.118 .00000E+00 0.000E+00 0.000E+00
BIGSUB   3        0    2.14590E+04    40.600    34.138    25.835    16.428   109.858     4.418     3.871     0.495     4.432     0.032     0.065     0.008     0.009     0.001     0.003     0.066     0.000     0.084 .00000E+00 0.000E+00 0.000E+00
BIGSUB   4        0    2.91800E+03    40.600    34.138    25.847    17.024   111.157     6.848     5.614     0.769     6.432     0.029     0.062     0.008     0.013     0.001     0.003     0.050     0.000     0.131 .00000E+00 0.000E+00 0.000E+00
BIGSUB   5        0    2.37770E+04    40.600    34.136    25.964    16.880   108.655     4.340     4.193     0.494     4.731     0.016     0.036     0.004     0.010     0.001     0.002     0.044     0.000     0.083 .00000E+00 0.000E+00 0.000E+00
BIGSUB   6        0    2.18250E+04    40.600    34.134    26.104    16.292   104.701     0.000     2.235     0.000     2.289     0.253     0.255     0.031     0.005     0.000     0.014     0.054     0.000     0.000 .00000E+00 0.000E+00 0.000E+00
BIGSUB   7        0    2.14660E+04    40.600    34.134    26.117    17.271    95.079    13.047    13.954     1.228    15.191     0.030     0.065     0.008     0.033     0.003     0.003     0.010     0.000     0.169 .00000E+00 0.000E+00 0.000E+00
BIGSUB   8        0    2.34940E+04    40.600    34.129    26.378    18.184   110.002     4.169    12.645     0.380    13.079     0.108     0.231     0.028     0.029     0.002     0.012     0.054     0.001     0.063 .00000E+00 0.000E+00 0.000E+00
BIGSUB   9        0    2.47420E+04    35.500    34.523    23.388    12.308    70.062     0.000     3.677     0.000     3.689     0.025     0.056     0.007     0.011     0.001     0.003     0.011     0.000     0.000 .00000E+00 0.000E+00 0.000E+00
BIGSUB  10        0    2.13380E+04    35.500    34.519    23.547    13.003    71.200     0.000     8.060     0.000     8.068     0.073     0.166     0.020     0.020     0.002     0.009     0.008     0.000     0.000 .00000E+00 0.000E+00 0.000E+00
BIGSUB  11        0    2.24060E+04    26.224    11.916    21.797    11.822    62.871     0.000     1.292     0.007     1.317     0.005     0.010     0.001     0.004     0.000     0.001     0.018     0.000     0.000 .00000E+00 0.000E+00 0.000E+00
BIGSUB  12        0    2.19770E+04    44.900    46.125    19.464     8.508   101.006     0.000     2.473     0.000     2.483     0.003     0.007     0.001     0.006     0.001     0.000     0.010     0.000     0.000 .00000E+00 0.000E+00 0.000E+00
BIGSUB  13        0    2.16410E+04    26.224    11.916    21.916    12.845    67.719     0.000     2.736     0.017     2.767     0.007     0.015     0.002     0.008     0.001     0.001     0.014     0.000     0.001 .00000E+00 0.000E+00 0.000E+00
BIGSUB  14        0    2.52740E+04    44.900    46.125    19.642     8.492   110.755     0.000     7.355     0.000     7.375     0.023     0.058     0.007     0.018     0.001     0.003     0.020     0.000     0.000 .00000E+00 0.000E+00 0.000E+00
BIGSUB  15        0    2.42200E+03    26.224    11.916    22.027    12.507    66.554     0.000     1.690     0.010     1.712     0.003     0.006     0.001     0.005     0.000     0.000     0.012     0.000     0.000 .00000E+00 0.000E+00 0.000E+00
BIGSUB  16        0    2.13850E+04    26.224    11.916    22.122    11.195    59.621     0.000     0.063     0.000     0.075     0.000     0.000     0.000     0.000     0.000     0.000     0.012     0.000     0.000 .00000E+00 0.000E+00 0.000E+00
BIGSUB  17        0    2.17180E+04    44.900    46.125    19.824     8.690   102.357     0.000    16.880     0.000    16.888     0.023     0.052     0.006     0.041     0.003     0.003     0.008     0.000     0.000 .00000E+00 0.000E+00 0.000E+00
BIGSUB  18        0    2.26090E+04    44.900    46.125    19.765     8.203   102.976     0.000     0.340     0.000     0.356     0.000     0.000     0.000     0.001     0.000     0.000     0.016     0.000     0.000 .00000E+00 0.000E+00 0.000E+00
BIGSUB  19        0    2.25380E+04    44.900    46.125    19.942     8.812   112.633     0.000     6.157     0.000     6.177     0.024     0.053     0.006     0.015     0.001     0.003     0.019     0.000     0.000 .00000E+00 0.000E+00 0.000E+00
BIGSUB  20        0    2.19820E+04    44.900    46.125    19.997     8.974   115.864     0.000     8.428     0.000     8.452     0.027     0.060     0.007     0.020     0.002     0.003     0.024     0.000     0.000 .00000E+00 0.000E+00 0.000E+00
BIGSUB   1        0    3.12360E+04    40.400     0.000    69.276    36.951   110.118     5.173     0.004     3.568     3.654     0.000     0.000     0.000     0.000     0.000     0.000     0.082     0.001     0.608 .00000E+00 0.000E+00 0.000E+00
BIGSUB   2        0    3.37400E+03    40.400     0.000    69.392    36.996   109.707     4.152     0.003     2.649     3.112     0.000     0.000     0.000     0.000     0.000     0.000     0.459     0.005     0.478 .00000E+00 0.000E+00 0.000E+00
BIGSUB   3        0    3.14590E+04    40.400     0.000    69.274    36.782   110.606     2.718     0.002     1.859     1.960     0.000     0.000     0.000     0.000     0.000     0.000     0.098     0.001     0.319 .00000E+00 0.000E+00 0.000E+00
BIGSUB   4        0    3.91800E+03    40.400     0.000    69.294    36.891   110.348     4.191     0.004     2.875     2.958     0.000     0.000     0.000     0.000     0.000     0.000     0.079     0.001     0.493 .00000E+00 0.000E+00 0.000E+00
BIGSUB   5        0    3.37770E+04    40.400     0.000    69.482    36.921   109.355     2.675     0.001     1.841     1.908     0.000     0.000     0.000     0.000     0.000     0.000     0.066     0.001     0.314 .00000E+00 0.000E+00 0.000E+00
BIGSUB   6        0    3.18250E+04    40.400     0.000    69.706    36.937   108.060     0.000     0.000     0.000     0.072     0.000     0.000     0.000     0.000     0.000     0.000     0.072     0.000     0.000 .00000E+00 0.000E+00 0.000E+00
BIGSUB   7        0    3.14660E+04    40.400     0.000    69.727    36.479    90.534     8.152     0.089     5.873     5.974     0.000     0.000     0.000     0.001     0.000     0.000     0.013     0.000     0.756 .00000E+00 0.000E+00 0.000E+00
BIGSUB   8        0    3.34940E+04    40.400     0.000    70.158    38.533    97.218    14.279     0.129     4.423     4.643     0.001     0.001     0.000     0.001     0.000     0.000     0.091     0.001     0.638 .00000E+00 0.000E+00 0.000E+00
BIGSUB   9        0    3.47420E+04    44.100     0.500    61.109    29.632    84.265     0.000     0.091     0.000     0.133     0.001     0.001     0.000     0.001     0.000     0.000     0.042     0.000     0.000 .00000E+00 0.000E+00 0.000E+00
BIGSUB  10        0    3.13380E+04    44.100     0.500    61.359    31.696    83.098     0.000     0.254     0.000     0.270     0.001     0.003     0.000     0.002     0.000     0.000     0.016     0.000     0.000 .00000E+00 0.000E+00 0.000E+00
BIGSUB  11        0    3.24060E+04     1.524    13.471    54.749    22.847    53.197     0.000     1.749     0.000     1.768     0.008     0.016     0.002     0.004     0.000     0.001     0.018     0.000     0.000 .00000E+00 0.000E+00 0.000E+00
BIGSUB  12        0    3.19770E+04    82.900    46.962    49.658    36.195   165.711     0.000     5.515     0.000     5.531     0.007     0.019     0.002     0.014     0.001     0.001     0.016     0.000     0.000 .00000E+00 0.000E+00 0.000E+00
BIGSUB  13        0    3.16410E+04     1.524    13.471    54.925    23.175    56.079     0.000     3.383     0.000     3.398     0.011     0.023     0.003     0.008     0.001     0.001     0.015     0.000     0.000 .00000E+00 0.000E+00 0.000E+00
BIGSUB  14        0    3.52740E+04    82.900    46.945    49.929    37.444   147.016    23.047     8.914     5.448    14.404     0.023     0.058     0.007     0.027     0.002     0.003     0.042     0.000     0.342 .00000E+00 0.000E+00 0.000E+00
BIGSUB  15        0    3.42200E+03     1.524    13.471    55.089    23.176    55.831     0.000     2.485     0.000     2.497     0.005     0.011     0.001     0.006     0.000     0.001     0.012     0.000     0.000 .00000E+00 0.000E+00 0.000E+00
BIGSUB  16        0    3.13850E+04     1.524    13.471    55.229    23.193    51.087     0.000     0.268     0.000     0.280     0.000     0.000     0.000     0.001     0.000     0.000     0.012     0.000     0.000 .00000E+00 0.000E+00 0.000E+00
BIGSUB  17        0    3.17180E+04    82.900    46.927    50.204    38.484    96.947    54.520    17.685    12.760    30.457     0.022     0.050     0.006     0.052     0.004     0.003     0.013     0.000     0.544 .00000E+00 0.000E+00 0.000E+00
BIGSUB  18        0    3.26090E+04    82.900    46.933    50.115    35.994   170.857     0.000     2.453     0.000     2.479     0.001     0.002     0.000     0.007     0.001     0.000     0.026     0.000     0.000 .00000E+00 0.000E+00 0.000E+00
BIGSUB  19        0    3.25380E+04    82.900    46.916    50.383    37.744   144.483    29.335     7.354     7.126    14.603     0.022     0.049     0.006     0.020     0.001     0.003     0.124     0.001     0.409 .00000E+00 0.000E+00 0.000E+00
BIGSUB  20        0    3.19820E+04    82.900    46.911    50.466    38.195   135.859    39.648     8.330     9.650    18.129     0.024     0.054     0.007     0.023     0.002     0.003     0.149     0.001     0.553 .00000E+00 0.000E+00 0.000E+00
BIGSUB   1        0    4.12360E+04    69.300     0.000   105.468    50.287   116.498    10.244     2.040     5.680     7.836     0.010     0.023     0.003     0.005     0.000     0.001     0.117     0.001     0.857 .00000E+00 0.000E+00 0.000E+00
BIGSUB   2        0    4.37400E+03    69.300     0.000   105.546    50.296   117.711     8.312     1.811     4.406     6.887     0.023     0.047     0.006     0.005     0.000     0.002     0.670     0.005     0.715 .00000E+00 0.000E+00 0.000E+00
BIGSUB   3        0    4.14590E+04    69.300     0.000   105.466    50.378   122.726     5.388     1.112     2.962     4.209     0.013     0.028     0.003     0.003     0.000     0.001     0.135     0.001     0.452 .00000E+00 0.000E+00 0.000E+00
BIGSUB   4        0    4.91800E+03    69.300     0.000   105.480    50.331   119.042     8.304     1.718     4.569     6.400     0.012     0.027     0.003     0.004     0.000     0.001     0.112     0.001     0.695 .00000E+00 0.000E+00 0.000E+00
BIGSUB   5        0    4.37770E+04    69.300     0.000   105.607    50.411   121.620     5.316     1.029     2.950     4.071     0.007     0.014     0.002     0.003     0.000     0.001     0.092     0.001     0.447 .00000E+00 0.000E+00 0.000E+00
BIGSUB   6        0    4.18250E+04    69.300     0.000   105.759    50.638   124.444     1.543     0.496     0.202     0.795     0.139     0.129     0.016     0.001     0.000     0.007     0.097     0.001     0.049 .00000E+00 0.000E+00 0.000E+00
BIGSUB   7        0    4.14660E+04    69.300     0.000   105.773    49.610    90.735    14.723     3.925     8.705    12.645     0.011     0.024     0.003     0.011     0.001     0.001     0.015     0.000     0.908 .00000E+00 0.000E+00 0.000E+00
BIGSUB   8        0    4.34940E+04    69.300     0.000   106.061    49.831    97.250    15.272     3.633     8.490    12.253     0.023     0.048     0.006     0.010     0.001     0.003     0.130     0.001     1.045 .00000E+00 0.000E+00 0.000E+00
BIGSUB   9        0    4.47420E+04    55.600     0.000    96.776    37.085   100.363     1.953     0.285     0.054     0.397     0.002     0.004     0.000     0.001     0.000     0.000     0.058     0.000     0.012 .00000E+00 0.000E+00 0.000E+00
BIGSUB  10        0    4.13380E+04    55.600     0.000    96.948    34.851    96.773     5.614     1.208     0.224     1.455     0.008     0.019     0.002     0.006     0.000     0.001     0.023     0.000     0.071 .00000E+00 0.000E+00 0.000E+00
BIGSUB  11        0    4.24060E+04    57.529     0.000    88.662    34.719    75.895     0.000     0.004     0.000     0.025     0.000     0.000     0.000     0.000     0.000     0.000     0.021     0.000     0.000 .00000E+00 0.000E+00 0.000E+00
BIGSUB  12        0    4.19770E+04    64.700     0.000    85.056    39.450   175.630    11.861     2.355     1.918     4.294     0.002     0.006     0.001     0.011     0.001     0.000     0.022     0.000     0.045 .00000E+00 0.000E+00 0.000E+00
BIGSUB  13        0    4.16410E+04    57.529     0.000    88.783    33.944    79.545     0.000     0.012     0.000     0.027     0.000     0.000     0.000     0.000     0.000     0.000     0.015     0.000     0.000 .00000E+00 0.000E+00 0.000E+00
BIGSUB  14        0    4.52740E+04    64.700     0.000    85.253    38.516   149.507    20.994     1.680    11.997    13.738     0.005     0.013     0.002     0.006     0.000     0.001     0.060     0.000     0.562 .00000E+00 0.000E+00 0.000E+00
BIGSUB  15        0    4.42200E+03    57.529     0.000    88.895    34.407    78.869     0.000     0.002     0.000     0.016     0.000     0.000     0.000     0.000     0.000     0.000     0.013     0.000     0.000 .00000E+00 0.000E+00 0.000E+00
BIGSUB  16        0    4.13850E+04    57.529     0.000    88.991    35.921    72.651     0.000     0.000     0.000     0.014     0.000     0.000     0.000     0.000     0.000     0.000     0.014     0.000     0.000 .00000E+00 0.000E+00 0.000E+00
BIGSUB  17        0    4.17180E+04    64.700     0.000    85.453    35.914    98.587    21.749     3.805    22.204    26.025     0.005     0.012     0.001     0.012     0.001     0.001     0.016     0.000     0.765 .00000E+00 0.000E+00 0.000E+00
BIGSUB  18        0    4.26090E+04    64.700     0.000    85.389    39.611   175.028    20.316     0.177     4.264     4.476     0.000     0.000     0.000     0.001     0.000     0.000     0.035     0.000     0.140 .00000E+00 0.000E+00 0.000E+00
BIGSUB  19        0    4.25380E+04    64.700     0.000    85.581    38.330   146.960    21.765     1.663    13.352    15.173     0.008     0.017     0.002     0.005     0.000     0.001     0.158     0.001     0.602 .00000E+00 0.000E+00 0.000E+00
BIGSUB  20        0    4.19820E+04    64.700     0.000    85.641    37.873   137.031    23.092     1.997    16.903    19.090     0.008     0.018     0.002     0.006     0.000     0.001     0.191     0.001     0.778 .00000E+00 0.000E+00 0.000E+00
BIGSUB   1        0    5.12360E+04    14.600     0.000   160.727    49.221    81.861     0.000     0.000     2.317     2.398     0.000     0.000     0.000     0.000     0.000     0.000     0.081     0.001     0.341 .00000E+00 0.000E+00 0.000E+00
BIGSUB   2        0    5.37400E+03    14.600     0.000   160.753    49.441    82.795     0.000     0.000     1.696     1.968     0.000     0.000     0.000     0.000     0.000     0.000     0.272     0.001     0.269 .00000E+00 0.000E+00 0.000E+00
BIGSUB   3        0    5.14590E+04    14.600     0.000   160.727    50.162    87.142     0.000     0.000     1.197     1.303     0.000     0.000     0.000     0.000     0.000     0.000     0.105     0.001     0.178 .00000E+00 0.000E+00 0.000E+00
BIGSUB   4        0    5.91800E+03    14.600     0.000   160.731    49.604    84.022     0.000     0.000     1.853     1.932     0.000     0.000     0.000     0.000     0.000     0.000     0.079     0.001     0.275 .00000E+00 0.000E+00 0.000E+00
BIGSUB   5        0    5.37770E+04    14.600     0.000   160.773    50.118    86.088     0.000     0.000     1.202     1.274     0.000     0.000     0.000     0.000     0.000     0.000     0.071     0.000     0.178 .00000E+00 0.000E+00 0.000E+00
BIGSUB   6        0    5.18250E+04    14.600     0.000   160.822    50.199    88.826     0.000     0.000     0.003     0.095     0.000     0.000     0.000     0.000     0.000     0.000     0.092     0.000     0.001 .00000E+00 0.000E+00 0.000E+00
BIGSUB   7        0    5.14660E+04    14.600     0.000   160.827    46.337    58.995     0.000     0.000     3.659     3.674     0.000     0.000     0.000     0.000     0.000     0.000     0.015     0.000     0.365 .00000E+00 0.000E+00 0.000E+00
BIGSUB   8        0    5.34940E+04    14.600     0.000   160.916    46.551    65.282     0.000     0.000     3.476     3.571     0.000     0.000     0.000     0.000     0.000     0.000     0.095     0.001     0.411 .00000E+00 0.000E+00 0.000E+00
BIGSUB   9        0    5.47420E+04    22.800     0.000   152.008    49.426    73.661     0.000     0.047     0.000     0.101     0.000     0.000     0.000     0.000     0.000     0.000     0.054     0.000     0.000 .00000E+00 0.000E+00 0.000E+00
BIGSUB  10        0    5.13380E+04    22.800     0.000   152.061    46.920    72.321     0.011     0.246     0.008     0.280     0.001     0.003     0.000     0.001     0.000     0.000     0.026     0.000     0.003 .00000E+00 0.000E+00 0.000E+00
BIGSUB  11        0    5.24060E+04    42.426     0.000   127.176    37.012    81.248     0.000     0.009     0.000     0.032     0.000     0.000     0.000     0.000     0.000     0.000     0.024     0.000     0.000 .00000E+00 0.000E+00 0.000E+00
BIGSUB  12        0    5.19770E+04     7.800     0.000   138.410    42.541   140.830     0.057     0.572     0.896     1.490     0.000     0.001     0.000     0.002     0.000     0.000     0.023     0.000     0.024 .00000E+00 0.000E+00 0.000E+00
BIGSUB  13        0    5.16410E+04    42.426     0.000   127.208    34.933    86.965     0.000     0.015     0.000     0.030     0.000     0.000     0.000     0.000     0.000     0.000     0.015     0.000     0.000 .00000E+00 0.000E+00 0.000E+00
BIGSUB  14        0    5.52740E+04     7.800     0.000   138.467    40.422   116.699     0.182     0.441     7.499     8.000     0.001     0.003     0.000     0.001     0.000     0.000     0.060     0.000     0.337 .00000E+00 0.000E+00 0.000E+00
BIGSUB  15        0    5.42200E+03    42.426     0.000   127.236    35.740    85.508     0.000     0.006     0.000     0.021     0.000     0.000     0.000     0.000     0.000     0.000     0.015     0.000     0.000 .00000E+00 0.000E+00 0.000E+00
BIGSUB  16        0    5.13850E+04    42.426     0.000   127.259    38.706    76.352     0.000     0.000     0.000     0.016     0.000     0.000     0.000     0.000     0.000     0.000     0.016     0.000     0.000 .00000E+00 0.000E+00 0.000E+00
BIGSUB  17        0    5.17180E+04     7.800     0.000   138.520    36.105    69.507     0.774     0.987    13.541    14.545     0.001     0.003     0.000     0.003     0.000     0.000     0.017     0.000     0.442 .00000E+00 0.000E+00 0.000E+00
BIGSUB  18        0    5.26090E+04     7.800     0.000   138.503    42.384   140.441     0.000     0.030     3.159     3.226     0.000     0.000     0.000     0.000     0.000     0.000     0.037     0.000     0.115 .00000E+00 0.000E+00 0.000E+00
BIGSUB  19        0    5.25380E+04     7.800     0.000   138.552    39.815   114.883     0.055     0.082     8.520     8.713     0.000     0.001     0.000     0.000     0.000     0.000     0.111     0.000     0.370 .00000E+00 0.000E+00 0.000E+00
BIGSUB  20        0    5.19820E+04     7.800     0.000   138.566    38.917   105.831     0.074     0.154    10.637    10.924     0.001     0.001     0.000     0.000     0.000     0.000     0.134     0.001     0.469 .00000E+00 0.000E+00 0.000E+00
BIGSUB   1        0    6.12360E+04     3.200     0.000   209.138    61.117    23.941     0.000     0.000     0.064     0.106     0.000     0.000     0.000     0.000     0.000     0.000     0.043     0.000     0.009 .00000E+00 0.000E+00 0.000E+00
BIGSUB   2        0    6.37400E+03     3.200     0.000   209.116    65.440    20.540     0.000     0.000     0.005     0.076     0.000     0.000     0.000     0.000     0.000     0.000     0.071     0.000     0.001 .00000E+00 0.000E+00 0.000E+00
BIGSUB   3        0    6.14590E+04     3.200     0.000   209.138    77.662    12.677     0.000     0.000     0.028     0.095     0.000     0.000     0.000     0.000     0.000     0.000     0.066     0.000     0.004 .00000E+00 0.000E+00 0.000E+00
BIGSUB   4        0    6.91800E+03     3.200     0.000   209.135    67.776    19.443     0.000     0.000     0.047     0.089     0.000     0.000     0.000     0.000     0.000     0.000     0.043     0.000     0.007 .00000E+00 0.000E+00 0.000E+00
BIGSUB   5        0    6.37770E+04     3.200     0.000   209.098    76.813    12.472     0.000     0.000     0.033     0.077     0.000     0.000     0.000     0.000     0.000     0.000     0.044     0.000     0.005 .00000E+00 0.000E+00 0.000E+00
BIGSUB   6        0    6.18250E+04     3.200     0.000   209.052    90.682     1.341     0.000     0.000     0.000     0.070     0.000     0.000     0.000     0.000     0.000     0.000     0.070     0.000     0.000 .00000E+00 0.000E+00 0.000E+00
BIGSUB   7        0    6.14660E+04     3.200     0.000   209.048    40.195    22.000     0.000     0.000     0.110     0.124     0.000     0.000     0.000     0.000     0.000     0.000     0.013     0.000     0.011 .00000E+00 0.000E+00 0.000E+00
BIGSUB   8        0    6.34940E+04     3.200     0.000   208.953    41.023    27.455     0.000     0.000     0.081     0.136     0.000     0.000     0.000     0.000     0.000     0.000     0.055     0.000     0.009 .00000E+00 0.000E+00 0.000E+00
BIGSUB   9        0    6.47420E+04     0.000     0.000   194.207    52.325    21.336     0.000     0.000     0.000     0.030     0.000     0.000     0.000     0.000     0.000     0.000     0.030     0.000     0.000 .00000E+00 0.000E+00 0.000E+00
BIGSUB  10        0    6.13380E+04     0.000     0.000   194.144    47.474    24.847     0.000     0.000     0.000     0.023     0.000     0.000     0.000     0.000     0.000     0.000     0.023     0.000     0.000 .00000E+00 0.000E+00 0.000E+00
BIGSUB  11        0    6.24060E+04     0.000     0.000   163.238    54.617    26.631     0.000     0.002     0.000     0.025     0.000     0.000     0.000     0.000     0.000     0.000     0.023     0.000     0.000 .00000E+00 0.000E+00 0.000E+00
BIGSUB  12        0    6.19770E+04     0.000     0.000   178.358    56.825    84.005     0.000     0.000     0.000     0.019     0.000     0.000     0.000     0.000     0.000     0.000     0.019     0.000     0.000 .00000E+00 0.000E+00 0.000E+00
BIGSUB  13        0    6.16410E+04     0.000     0.000   163.194    52.428    34.537     0.000     0.008     0.000     0.022     0.000     0.000     0.000     0.000     0.000     0.000     0.014     0.000     0.000 .00000E+00 0.000E+00 0.000E+00
BIGSUB  14        0    6.52740E+04     0.000     0.000   178.273    52.294    64.405     0.000     0.000     2.384     2.432     0.000     0.000     0.000     0.000     0.000     0.000     0.049     0.000     0.112 .00000E+00 0.000E+00 0.000E+00
BIGSUB  15        0    6.42200E+03     0.000     0.000   163.150    51.932    33.576     0.000     0.001     0.000     0.015     0.000     0.000     0.000     0.000     0.000     0.000     0.014     0.000     0.000 .00000E+00 0.000E+00 0.000E+00
BIGSUB  16        0    6.13850E+04     0.000     0.000   163.112    54.076    22.276     0.000     0.000     0.000     0.015     0.000     0.000     0.000     0.000     0.000     0.000     0.015     0.000     0.000 .00000E+00 0.000E+00 0.000E+00
BIGSUB  17        0    6.17180E+04     0.000     0.000   178.180    47.507    22.000     0.000     0.000     5.610     5.625     0.000     0.000     0.000     0.000     0.000     0.000     0.015     0.000     0.182 .00000E+00 0.000E+00 0.000E+00
BIGSUB  18        0    6.26090E+04     0.000     0.000   178.211    55.824    84.618     0.000     0.000     0.117     0.149     0.000     0.000     0.000     0.000     0.000     0.000     0.032     0.000     0.004 .00000E+00 0.000E+00 0.000E+00
BIGSUB  19        0    6.25380E+04     0.000     0.000   178.116    52.353    62.530     0.000     0.000     3.009     3.064     0.000     0.000     0.000     0.000     0.000     0.000     0.055     0.000     0.134 .00000E+00 0.000E+00 0.000E+00
BIGSUB  20        0    6.19820E+04     0.000     0.000   178.086    51.083    54.749     0.000     0.000     4.084     4.150     0.000     0.000     0.000     0.000     0.000     0.000     0.066     0.000     0.182 .00000E+00 0.000E+00 0.000E+00
BIGSUB   1        0    7.12360E+04     0.000     0.000   212.019     0.000    23.941     0.000     0.000     0.000     0.026     0.000     0.000     0.000     0.000     0.000     0.000     0.026     0.000     0.000 .00000E+00 0.000E+00 0.000E+00
BIGSUB   2        0    7.37400E+03     0.000     0.000   212.020     0.000    20.540     0.000     0.000     0.000     0.039     0.000     0.000     0.000     0.000     0.000     0.000     0.039     0.000     0.000 .00000E+00 0.000E+00 0.000E+00
BIGSUB   3        0    7.14590E+04     0.000     0.000   212.019     0.000    12.677     0.000     0.000     0.000     0.049     0.000     0.000     0.000     0.000     0.000     0.000     0.049     0.000     0.000 .00000E+00 0.000E+00 0.000E+00
BIGSUB   4        0    7.91800E+03     0.000     0.000   212.019     0.000    19.443     0.000     0.000     0.000     0.027     0.000     0.000     0.000     0.000     0.000     0.000     0.027     0.000     0.000 .00000E+00 0.000E+00 0.000E+00
BIGSUB   5        0    7.37770E+04     0.000     0.000   212.020     0.000    12.472     0.000     0.000     0.000     0.031     0.000     0.000     0.000     0.000     0.000     0.000     0.031     0.000     0.000 .00000E+00 0.000E+00 0.000E+00
BIGSUB   6        0    7.18250E+04     0.000     0.000   212.020     0.000     1.341     0.000     0.000     0.000     0.056     0.000     0.000     0.000     0.000     0.000     0.000     0.056     0.000     0.000 .00000E+00 0.000E+00 0.000E+00
BIGSUB   7        0    7.14660E+04     0.000     0.000   212.020     0.000    22.000     0.000     0.000     0.000     0.013     0.000     0.000     0.000     0.000     0.000     0.000     0.013     0.000     0.000 .00000E+00 0.000E+00 0.000E+00
BIGSUB   8        0    7.34940E+04     0.000     0.000   212.012     0.000    27.455     0.000     0.000     0.000     0.037     0.000     0.000     0.000     0.000     0.000     0.000     0.037     0.000     0.000 .00000E+00 0.000E+00 0.000E+00
BIGSUB   9        0    7.47420E+04     1.000     0.000   196.409     9.511    12.825     0.000     0.000     0.000     0.017     0.000     0.000     0.000     0.000     0.000     0.000     0.017     0.000     0.000 .00000E+00 0.000E+00 0.000E+00
BIGSUB  10        0    7.13380E+04     1.000     0.000   196.401     3.847    22.000     0.000     0.000     0.000     0.021     0.000     0.000     0.000     0.000     0.000     0.000     0.021     0.000     0.000 .00000E+00 0.000E+00 0.000E+00
BIGSUB  11        0    7.24060E+04     9.668     0.000   180.777    26.909     9.387     0.000     0.000     0.000     0.020     0.000     0.000     0.000     0.000     0.000     0.000     0.020     0.000     0.000 .00000E+00 0.000E+00 0.000E+00
BIGSUB  12        0    7.19770E+04     0.200     0.000   186.728    84.205     0.000     0.000     0.000     0.000     0.018     0.000     0.000     0.000     0.000     0.000     0.000     0.018     0.000     0.000 .00000E+00 0.000E+00 0.000E+00
BIGSUB  13        0    7.16410E+04     9.668     0.000   180.767    22.203    22.000     0.000     0.000     0.000     0.014     0.000     0.000     0.000     0.000     0.000     0.000     0.014     0.000     0.000 .00000E+00 0.000E+00 0.000E+00
BIGSUB  14        0    7.52740E+04     0.200     0.000   186.711    48.193    16.412     0.000     0.000     0.685     0.727     0.000     0.000     0.000     0.000     0.000     0.000     0.042     0.000     0.032 .00000E+00 0.000E+00 0.000E+00
BIGSUB  15        0    7.42200E+03     9.668     0.000   180.756    26.219    17.024     0.000     0.000     0.000     0.013     0.000     0.000     0.000     0.000     0.000     0.000     0.013     0.000     0.000 .00000E+00 0.000E+00 0.000E+00
BIGSUB  16        0    7.13850E+04     9.668     0.000   180.745    31.942     0.000     0.000     0.000     0.000     0.014     0.000     0.000     0.000     0.000     0.000     0.000     0.014     0.000     0.000 .00000E+00 0.000E+00 0.000E+00
BIGSUB  17        0    7.17180E+04     0.200     0.000   186.687     0.200    22.000     0.000     0.000     1.782     1.796     0.000     0.000     0.000     0.000     0.000     0.000     0.014     0.000     0.058 .00000E+00 0.000E+00 0.000E+00
BIGSUB  18        0    7.26090E+04     0.200     0.000   186.696    84.818     0.000     0.000     0.000     0.000     0.028     0.000     0.000     0.000     0.000     0.000     0.000     0.028     0.000     0.000 .00000E+00 0.000E+00 0.000E+00
BIGSUB  19        0    7.25380E+04     0.200     0.000   186.668    45.139    17.591     0.000     0.000     1.031     1.062     0.000     0.000     0.000     0.000     0.000     0.000     0.031     0.000     0.046 .00000E+00 0.000E+00 0.000E+00
BIGSUB  20        0    7.19820E+04     0.200     0.000   186.659    31.140    23.809     0.000     0.000     1.401     1.438     0.000     0.000     0.000     0.000     0.000     0.000     0.037     0.000     0.062 .00000E+00 0.000E+00 0.000E+00
BIGSUB   1        0    8.12360E+04     0.000     0.000   189.929     0.000    23.941     0.000     0.000     0.000     0.016     0.000     0.000     0.000     0.000     0.000     0.000     0.016     0.000     0.000 .00000E+00 0.000E+00 0.000E+00
BIGSUB   2        0    8.37400E+03     0.000     0.000   190.021     0.000    20.540     0.000     0.000     0.000     0.023     0.000     0.000     0.000     0.000     0.000     0.000     0.023     0.000     0.000 .00000E+00 0.000E+00 0.000E+00
BIGSUB   3        0    8.14590E+04     0.000     0.000   189.927     0.000    12.677     0.000     0.000     0.000     0.036     0.000     0.000     0.000     0.000     0.000     0.000     0.036     0.000     0.000 .00000E+00 0.000E+00 0.000E+00
BIGSUB   4        0    8.91800E+03     0.000     0.000   189.943     0.000    19.443     0.000     0.000     0.000     0.017     0.000     0.000     0.000     0.000     0.000     0.000     0.017     0.000     0.000 .00000E+00 0.000E+00 0.000E+00
BIGSUB   5        0    8.37770E+04     0.000     0.000   190.092     0.000    12.472     0.000     0.000     0.000     0.022     0.000     0.000     0.000     0.000     0.000     0.000     0.022     0.000     0.000 .00000E+00 0.000E+00 0.000E+00
BIGSUB   6        0    8.18250E+04     0.000     0.000   190.268     0.000     1.341     0.000     0.000     0.000     0.043     0.000     0.000     0.000     0.000     0.000     0.000     0.043     0.000     0.000 .00000E+00 0.000E+00 0.000E+00
BIGSUB   7        0    8.14660E+04     0.000     0.000   190.284     0.000    22.000     0.000     0.000     0.000     0.012     0.000     0.000     0.000     0.000     0.000     0.000     0.012     0.000     0.000 .00000E+00 0.000E+00 0.000E+00
BIGSUB   8        0    8.34940E+04     0.000     0.000   190.617     0.000    27.455     0.000     0.000     0.000     0.026     0.000     0.000     0.000     0.000     0.000     0.000     0.026     0.000     0.000 .00000E+00 0.000E+00 0.000E+00
BIGSUB   9        0    8.47420E+04     0.500     0.000   187.150     0.500    12.825     0.000     0.000     0.000     0.011     0.000     0.000     0.000     0.000     0.000     0.000     0.010     0.000     0.000 .00000E+00 0.000E+00 0.000E+00
BIGSUB  10        0    8.13380E+04     0.500     0.000   187.362     0.500    22.000     0.000     0.000     0.000     0.018     0.000     0.000     0.000     0.000     0.000     0.000     0.018     0.000     0.000 .00000E+00 0.000E+00 0.000E+00
BIGSUB  11        0    8.24060E+04     0.000     0.000   176.056     0.000     9.387     0.000     0.000     0.000     0.018     0.000     0.000     0.000     0.000     0.000     0.000     0.018     0.000     0.000 .00000E+00 0.000E+00 0.000E+00
BIGSUB  12        0    8.19770E+04     0.000     0.000   180.679     0.000     0.000     0.000     0.000     0.000     0.015     0.000     0.000     0.000     0.000     0.000     0.000     0.015     0.000     0.000 .00000E+00 0.000E+00 0.000E+00
BIGSUB  13        0    8.16410E+04     0.000     0.000   176.210     0.000    22.000     0.000     0.000     0.000     0.013     0.000     0.000     0.000     0.000     0.000     0.000     0.013     0.000     0.000 .00000E+00 0.000E+00 0.000E+00
BIGSUB  14        0    8.52740E+04     0.000     0.000   180.945     0.000    16.412     0.000     0.000     0.012     0.047     0.000     0.000     0.000     0.000     0.000     0.000     0.035     0.000     0.001 .00000E+00 0.000E+00 0.000E+00
BIGSUB  15        0    8.42200E+03     0.000     0.000   176.352     0.000    17.024     0.000     0.000     0.000     0.011     0.000     0.000     0.000     0.000     0.000     0.000     0.011     0.000     0.000 .00000E+00 0.000E+00 0.000E+00
BIGSUB  16        0    8.13850E+04     0.000     0.000   176.472     0.000     0.000     0.000     0.000     0.000     0.012     0.000     0.000     0.000     0.000     0.000     0.000     0.012     0.000     0.000 .00000E+00 0.000E+00 0.000E+00
BIGSUB  17        0    8.17180E+04     0.000     0.000   181.211     0.000    22.000     0.000     0.000     0.038     0.051     0.000     0.000     0.000     0.000     0.000     0.000     0.013     0.000     0.001 .00000E+00 0.000E+00 0.000E+00
BIGSUB  18        0    8.26090E+04     0.000     0.000   181.126     0.000     0.000     0.000     0.000     0.000     0.025     0.000     0.000     0.000     0.000     0.000     0.000     0.025     0.000     0.000 .00000E+00 0.000E+00 0.000E+00
BIGSUB  19        0    8.25380E+04     0.000     0.000   181.382     0.000    17.591     0.000     0.000     0.040     0.059     0.000     0.000     0.000     0.000     0.000     0.000     0.019     0.000     0.002 .00000E+00 0.000E+00 0.000E+00
BIGSUB  20        0    8.19820E+04     0.000     0.000   181.460     0.000    23.809     0.000     0.000     0.055     0.078     0.000     0.000     0.000     0.000     0.000     0.000     0.022     0.000     0.002 .00000E+00 0.000E+00 0.000E+00
BIGSUB   1        0    9.12360E+04     0.000     0.000   154.252     0.000    23.941     0.000     0.000     0.000     0.011     0.000     0.000     0.000     0.000     0.000     0.000     0.011     0.000     0.000 .00000E+00 0.000E+00 0.000E+00
BIGSUB   2        0    9.37400E+03     0.000     0.000   154.449     0.000    20.540     0.000     0.000     0.000     0.018     0.000     0.000     0.000     0.000     0.000     0.000     0.018     0.000     0.000 .00000E+00 0.000E+00 0.000E+00
BIGSUB   3        0    9.14590E+04     0.000     0.000   154.247     0.000    12.677     0.000     0.000     0.000     0.028     0.000     0.000     0.000     0.000     0.000     0.000     0.028     0.000     0.000 .00000E+00 0.000E+00 0.000E+00
BIGSUB   4        0    9.91800E+03     0.000     0.000   154.282     0.000    19.443     0.000     0.000     0.000     0.012     0.000     0.000     0.000     0.000     0.000     0.000     0.012     0.000     0.000 .00000E+00 0.000E+00 0.000E+00
BIGSUB   5        0    9.37770E+04     0.000     0.000   154.602     0.000    12.472     0.000     0.000     0.000     0.016     0.000     0.000     0.000     0.000     0.000     0.000     0.016     0.000     0.000 .00000E+00 0.000E+00 0.000E+00
BIGSUB   6        0    9.18250E+04     0.000     0.000   154.982     0.000     1.341     0.000     0.000     0.000     0.032     0.000     0.000     0.000     0.000     0.000     0.000     0.032     0.000     0.000 .00000E+00 0.000E+00 0.000E+00
BIGSUB   7        0    9.14660E+04     0.000     0.000   155.018     0.000    22.000     0.000     0.000     0.000     0.010     0.000     0.000     0.000     0.000     0.000     0.000     0.010     0.000     0.000 .00000E+00 0.000E+00 0.000E+00
BIGSUB   8        0    9.34940E+04     0.000     0.000   155.749     0.000    27.455     0.000     0.000     0.000     0.019     0.000     0.000     0.000     0.000     0.000     0.000     0.019     0.000     0.000 .00000E+00 0.000E+00 0.000E+00
BIGSUB   9        0    9.47420E+04     0.000     0.000   151.075     0.000    12.825     0.000     0.000     0.000     0.007     0.000     0.000     0.000     0.000     0.000     0.000     0.007     0.000     0.000 .00000E+00 0.000E+00 0.000E+00
BIGSUB  10        0    9.13380E+04     0.000     0.000   151.541     0.000    22.000     0.000     0.000     0.000     0.016     0.000     0.000     0.000     0.000     0.000     0.000     0.016     0.000     0.000 .00000E+00 0.000E+00 0.000E+00
BIGSUB  11        0    9.24060E+04     1.380     0.000   121.829     1.380     9.387     0.000     0.000     0.000     0.015     0.000     0.000     0.000     0.000     0.000     0.000     0.015     0.000     0.000 .00000E+00 0.000E+00 0.000E+00
BIGSUB  12        0    9.19770E+04     0.000     0.000   137.300     0.000     0.000     0.000     0.000     0.000     0.013     0.000     0.000     0.000     0.000     0.000     0.000     0.013     0.000     0.000 .00000E+00 0.000E+00 0.000E+00
BIGSUB  13        0    9.16410E+04     1.380     0.000   122.115     1.380    22.000     0.000     0.000     0.000     0.011     0.000     0.000     0.000     0.000     0.000     0.000     0.011     0.000     0.000 .00000E+00 0.000E+00 0.000E+00
BIGSUB  14        0    9.52740E+04     0.000     0.000   137.661     0.000    16.412     0.000     0.000     0.000     0.028     0.000     0.000     0.000     0.000     0.000     0.000     0.028     0.000     0.000 .00000E+00 0.000E+00 0.000E+00
BIGSUB  15        0    9.42200E+03     1.380     0.000   122.381     1.380    17.024     0.000     0.000     0.000     0.010     0.000     0.000     0.000     0.000     0.000     0.000     0.010     0.000     0.000 .00000E+00 0.000E+00 0.000E+00
BIGSUB  16        0    9.13850E+04     1.380     0.000   122.608     1.380     0.000     0.000     0.000     0.000     0.010     0.000     0.000     0.000     0.000     0.000     0.000     0.010     0.000     0.000 .00000E+00 0.000E+00 0.000E+00
BIGSUB  17        0    9.17180E+04     0.000     0.000   138.230     0.000    22.000     0.000     0.000     0.000     0.011     0.000     0.000     0.000     0.000     0.000     0.000     0.011     0.000     0.000 .00000E+00 0.000E+00 0.000E+00
BIGSUB  18        0    9.26090E+04     0.000     0.000   138.047     0.000     0.000     0.000     0.000     0.000     0.021     0.000     0.000     0.000     0.000     0.000     0.000     0.021     0.000     0.000 .00000E+00 0.000E+00 0.000E+00
BIGSUB  19        0    9.25380E+04     0.000     0.000   138.599     0.000    17.591     0.000     0.000     0.000     0.012     0.000     0.000     0.000     0.000     0.000     0.000     0.012     0.000     0.000 .00000E+00 0.000E+00 0.000E+00
BIGSUB  20        0    9.19820E+04     0.000     0.000   138.769     0.000    23.809     0.000     0.000     0.000     0.015     0.000     0.000     0.000     0.000     0.000     0.000     0.015     0.000     0.000 .00000E+00 0.000E+00 0.000E+00
BIGSUB   1        0   10.12360E+04    17.900     0.000    88.216     8.822    32.996     0.000     0.000     0.000     0.015     0.000     0.000     0.000     0.000     0.000     0.000     0.015     0.000     0.000 .00000E+00 0.000E+00 0.000E+00
BIGSUB   2        0   10.37400E+03    17.900     0.000    88.421     8.800    29.535     0.000     0.000     0.000     0.074     0.000     0.000     0.000     0.000     0.000     0.000     0.074     0.000     0.000 .00000E+00 0.000E+00 0.000E+00
BIGSUB   3        0   10.14590E+04    17.900     0.000    88.212     8.746    21.798     0.000     0.000     0.000     0.030     0.000     0.000     0.000     0.000     0.000     0.000     0.030     0.000     0.000 .00000E+00 0.000E+00 0.000E+00
BIGSUB   4        0   10.91800E+03    17.900     0.000    88.247     8.794    28.526     0.000     0.000     0.000     0.016     0.000     0.000     0.000     0.000     0.000     0.000     0.016     0.000     0.000 .00000E+00 0.000E+00 0.000E+00
BIGSUB   5        0   10.37770E+04    17.900     0.000    88.580     8.781    21.569     0.000     0.000     0.000     0.018     0.000     0.000     0.000     0.000     0.000     0.000     0.018     0.000     0.000 .00000E+00 0.000E+00 0.000E+00
BIGSUB   6        0   10.18250E+04    17.900     0.000    88.976     8.968    10.244     0.000     0.000     0.000     0.029     0.000     0.000     0.000     0.000     0.000     0.000     0.029     0.000     0.000 .00000E+00 0.000E+00 0.000E+00
BIGSUB   7        0   10.14660E+04    17.900     0.000    89.013     8.937    30.959     0.000     0.000     0.000     0.010     0.000     0.000     0.000     0.000     0.000     0.000     0.010     0.000     0.000 .00000E+00 0.000E+00 0.000E+00
BIGSUB   8        0   10.34940E+04    17.900     0.000    89.777     8.969    36.362     0.000     0.000     0.000     0.022     0.000     0.000     0.000     0.000     0.000     0.000     0.022     0.000     0.000 .00000E+00 0.000E+00 0.000E+00
BIGSUB   9        0   10.47420E+04    20.400     0.000    81.612    10.285    22.918     0.000     0.000     0.000     0.008     0.000     0.000     0.000     0.000     0.000     0.000     0.008     0.000     0.000 .00000E+00 0.000E+00 0.000E+00
BIGSUB  10        0   10.13380E+04    20.400     0.000    82.069     9.662    32.724     0.000     0.000     0.000     0.015     0.000     0.000     0.000     0.000     0.000     0.000     0.015     0.000     0.000 .00000E+00 0.000E+00 0.000E+00
BIGSUB  11        0   10.24060E+04    19.432     0.000    65.404    12.184    16.623     0.000     0.000     0.000     0.014     0.000     0.000     0.000     0.000     0.000     0.000     0.014     0.000     0.000 .00000E+00 0.000E+00 0.000E+00
BIGSUB  12        0   10.19770E+04    18.400     0.000    73.005     6.312    12.080     0.000     0.000     0.000     0.012     0.000     0.000     0.000     0.000     0.000     0.000     0.012     0.000     0.000 .00000E+00 0.000E+00 0.000E+00
BIGSUB  13        0   10.16410E+04    19.432     0.000    65.694    12.014    29.413     0.000     0.000     0.000     0.011     0.000     0.000     0.000     0.000     0.000     0.000     0.011     0.000     0.000 .00000E+00 0.000E+00 0.000E+00
BIGSUB  14        0   10.52740E+04    18.400     0.000    73.547     6.320    28.478     0.000     0.000     0.000     0.025     0.000     0.000     0.000     0.000     0.000     0.000     0.025     0.000     0.000 .00000E+00 0.000E+00 0.000E+00
BIGSUB  15        0   10.42200E+03    19.432     0.000    65.964    11.998    24.451     0.000     0.000     0.000     0.009     0.000     0.000     0.000     0.000     0.000     0.000     0.009     0.000     0.000 .00000E+00 0.000E+00 0.000E+00
BIGSUB  16        0   10.13850E+04    19.432     0.000    66.195    12.133     7.291     0.000     0.000     0.000     0.010     0.000     0.000     0.000     0.000     0.000     0.000     0.010     0.000     0.000 .00000E+00 0.000E+00 0.000E+00
BIGSUB  17        0   10.17180E+04    18.400     0.000    74.101     6.543    33.853     0.000     0.000     0.000     0.011     0.000     0.000     0.000     0.000     0.000     0.000     0.011     0.000     0.000 .00000E+00 0.000E+00 0.000E+00
BIGSUB  18        0   10.26090E+04    18.400     0.000    73.922     6.318    12.071     0.000     0.000     0.000     0.019     0.000     0.000     0.000     0.000     0.000     0.000     0.019     0.000     0.000 .00000E+00 0.000E+00 0.000E+00
BIGSUB  19        0   10.25380E+04    18.400     0.000    74.462     6.403    29.566     0.000     0.000     0.000     0.011     0.000     0.000     0.000     0.000     0.000     0.000     0.011     0.000     0.000 .00000E+00 0.000E+00 0.000E+00
BIGSUB  20        0   10.19820E+04    18.400     0.000    74.629     6.427    35.757     0.000     0.000     0.000     0.014     0.000     0.000     0.000     0.000     0.000     0.000     0.014     0.000     0.000 .00000E+00 0.000E+00 0.000E+00
BIGSUB   1        0   11.12360E+04    13.000     0.000    54.578     7.223    38.753     0.000     0.000     0.000     0.021     0.000     0.000     0.000     0.000     0.000     0.000     0.021     0.000     0.000 .00000E+00 0.000E+00 0.000E+00
BIGSUB   2        0   11.37400E+03    13.000     0.000    54.774     7.131    35.309     0.000     0.000     0.000     0.109     0.000     0.000     0.000     0.000     0.000     0.000     0.109     0.000     0.000 .00000E+00 0.000E+00 0.000E+00
BIGSUB   3        0   11.14590E+04    13.000     0.000    54.573     6.998    27.769     0.000     0.000     0.000     0.035     0.000     0.000     0.000     0.000     0.000     0.000     0.035     0.000     0.000 .00000E+00 0.000E+00 0.000E+00
BIGSUB   4        0   11.91800E+03    13.000     0.000    54.607     7.136    34.369     0.000     0.000     0.000     0.021     0.000     0.000     0.000     0.000     0.000     0.000     0.021     0.000     0.000 .00000E+00 0.000E+00 0.000E+00
BIGSUB   5        0   11.37770E+04    13.000     0.000    54.927     7.026    27.523     0.000     0.000     0.000     0.021     0.000     0.000     0.000     0.000     0.000     0.000     0.021     0.000     0.000 .00000E+00 0.000E+00 0.000E+00
BIGSUB   6        0   11.18250E+04    13.000     0.000    55.309     7.108    16.109     0.000     0.000     0.000     0.029     0.000     0.000     0.000     0.000     0.000     0.000     0.029     0.000     0.000 .00000E+00 0.000E+00 0.000E+00
BIGSUB   7        0   11.14660E+04    13.000     0.000    55.344     8.345    35.610     0.000     0.000     0.000     0.009     0.000     0.000     0.000     0.000     0.000     0.000     0.009     0.000     0.000 .00000E+00 0.000E+00 0.000E+00
BIGSUB   8        0   11.34940E+04    13.000     0.000    56.082     8.105    41.234     0.000     0.000     0.000     0.027     0.000     0.000     0.000     0.000     0.000     0.000     0.027     0.000     0.000 .00000E+00 0.000E+00 0.000E+00
BIGSUB   9        0   11.47420E+04     0.800     0.000    51.550    10.893    12.825     0.000     0.000     0.000     0.013     0.000     0.000     0.000     0.000     0.000     0.000     0.013     0.000     0.000 .00000E+00 0.000E+00 0.000E+00
BIGSUB  10        0   11.13380E+04     0.800     0.000    52.001    11.524    22.000     0.000     0.000     0.000     0.014     0.000     0.000     0.000     0.000     0.000     0.000     0.014     0.000     0.000 .00000E+00 0.000E+00 0.000E+00
BIGSUB  11        0   11.24060E+04   110.416    10.535    36.286    29.369    93.613     3.692     0.177     0.048     0.249     0.001     0.001     0.000     0.000     0.000     0.000     0.024     0.000     0.002 .00000E+00 0.000E+00 0.000E+00
BIGSUB  12        0   11.19770E+04     6.000     0.000    44.945    13.912     4.166     0.000     0.000     0.000     0.011     0.000     0.000     0.000     0.000     0.000     0.000     0.011     0.000     0.000 .00000E+00 0.000E+00 0.000E+00
BIGSUB  13        0   11.16410E+04   110.416    10.535    36.535    29.516   101.021     8.765     0.288     0.115     0.416     0.001     0.002     0.000     0.001     0.000     0.000     0.013     0.000     0.004 .00000E+00 0.000E+00 0.000E+00
BIGSUB  14        0   11.52740E+04     6.000     0.000    45.466    12.668    21.806     0.000     0.000     0.000     0.022     0.000     0.000     0.000     0.000     0.000     0.000     0.022     0.000     0.000 .00000E+00 0.000E+00 0.000E+00
BIGSUB  15        0   11.42200E+03   110.416    10.535    36.767    29.655    97.977     6.897     0.203     0.085     0.303     0.000     0.001     0.000     0.001     0.000     0.000     0.014     0.000     0.003 .00000E+00 0.000E+00 0.000E+00
BIGSUB  16        0   11.13850E+04   110.416    10.535    36.967    29.897    87.730     0.000     0.000     0.000     0.016     0.000     0.000     0.000     0.000     0.000     0.000     0.016     0.000     0.000 .00000E+00 0.000E+00 0.000E+00
BIGSUB  17        0   11.17180E+04     6.000     0.000    46.001    11.915    27.937     0.000     0.000     0.000     0.010     0.000     0.000     0.000     0.000     0.000     0.000     0.010     0.000     0.000 .00000E+00 0.000E+00 0.000E+00
BIGSUB  18        0   11.26090E+04     6.000     0.000    45.828    13.668     4.400     0.000     0.000     0.000     0.017     0.000     0.000     0.000     0.000     0.000     0.000     0.017     0.000     0.000 .00000E+00 0.000E+00 0.000E+00
BIGSUB  19        0   11.25380E+04     6.000     0.000    46.349    12.847    22.713     0.000     0.000     0.000     0.018     0.000     0.000     0.000     0.000     0.000     0.000     0.018     0.000     0.000 .00000E+00 0.000E+00 0.000E+00
BIGSUB  20        0   11.19820E+04     6.000     0.000    46.511    12.525    29.225     0.000     0.000     0.000     0.022     0.000     0.000     0.000     0.000     0.000     0.000     0.022     0.000     0.000 .00000E+00 0.000E+00 0.000E+00
BIGSUB   1        0   12.12360E+04    39.000     0.000    27.257     7.288    59.418     0.000     0.000     0.000     0.029     0.000     0.000     0.000     0.000     0.000     0.000     0.029     0.000     0.000 .00000E+00 0.000E+00 0.000E+00
BIGSUB   2        0   12.37400E+03    39.000     0.000    27.379     7.097    55.996     0.000     0.000     0.000     0.163     0.000     0.000     0.000     0.000     0.000     0.000     0.163     0.000     0.000 .00000E+00 0.000E+00 0.000E+00
BIGSUB   3        0   12.14590E+04    39.000     0.000    27.255     6.759    48.940     0.000     0.000     0.000     0.043     0.000     0.000     0.000     0.000     0.000     0.000     0.043     0.000     0.000 .00000E+00 0.000E+00 0.000E+00
BIGSUB   4        0   12.91800E+03    39.000     0.000    27.276     7.081    55.241     0.000     0.000     0.000     0.029     0.000     0.000     0.000     0.000     0.000     0.000     0.029     0.000     0.000 .00000E+00 0.000E+00 0.000E+00
BIGSUB   5        0   12.37770E+04    39.000     0.000    27.473     6.792    48.687     0.000     0.000     0.000     0.026     0.000     0.000     0.000     0.000     0.000     0.000     0.026     0.000     0.000 .00000E+00 0.000E+00 0.000E+00
BIGSUB   6        0   12.18250E+04    39.000     0.000    27.709     6.505    37.542     0.000     0.000     0.000     0.034     0.000     0.000     0.000     0.000     0.000     0.000     0.034     0.000     0.000 .00000E+00 0.000E+00 0.000E+00
BIGSUB   7        0   12.14660E+04    39.000     0.000    27.731     8.659    54.941     0.000     0.000     0.000     0.009     0.000     0.000     0.000     0.000     0.000     0.000     0.009     0.000     0.000 .00000E+00 0.000E+00 0.000E+00
BIGSUB   8        0   12.34940E+04    39.000     0.000    28.187     8.467    60.714     0.000     0.000     0.000     0.035     0.000     0.000     0.000     0.000     0.000     0.000     0.035     0.000     0.000 .00000E+00 0.000E+00 0.000E+00
BIGSUB   9        0   12.47420E+04    15.300     0.000    28.129     2.574    15.151     0.000     0.000     0.000     0.008     0.000     0.000     0.000     0.000     0.000     0.000     0.008     0.000     0.000 .00000E+00 0.000E+00 0.000E+00
BIGSUB  10        0   12.13380E+04    15.300     0.000    28.431     2.376    24.522     0.000     0.000     0.000     0.013     0.000     0.000     0.000     0.000     0.000     0.000     0.013     0.000     0.000 .00000E+00 0.000E+00 0.000E+00
BIGSUB  11        0   12.24060E+04    22.312    16.994    21.931    15.489    96.480     3.896     0.015     2.375     2.419     0.000     0.000     0.000     0.000     0.000     0.000     0.029     0.000     0.105 .00000E+00 0.000E+00 0.000E+00
BIGSUB  12        0   12.19770E+04    20.900     0.000    24.144     5.999     1.066     0.000     0.000     0.000     0.010     0.000     0.000     0.000     0.000     0.000     0.000     0.010     0.000     0.000 .00000E+00 0.000E+00 0.000E+00
BIGSUB  13        0   12.16410E+04    22.312    16.994    22.113    15.866    98.301     9.077     0.030     5.602     5.647     0.000     0.000     0.000     0.000     0.000     0.000     0.016     0.000     0.245 .00000E+00 0.000E+00 0.000E+00
BIGSUB  14        0   12.52740E+04    20.900     0.000    24.488     5.941    18.765     0.000     0.000     0.000     0.020     0.000     0.000     0.000     0.000     0.000     0.000     0.020     0.000     0.000 .00000E+00 0.000E+00 0.000E+00
BIGSUB  15        0   12.42200E+03    22.312    16.994    22.284    15.834    97.415     6.991     0.011     4.355     4.383     0.000     0.000     0.000     0.000     0.000     0.000     0.017     0.000     0.190 .00000E+00 0.000E+00 0.000E+00
BIGSUB  16        0   12.13850E+04    22.312    16.994    22.431    15.612    94.422     0.000     0.000     0.000     0.019     0.000     0.000     0.000     0.000     0.000     0.000     0.019     0.000     0.000 .00000E+00 0.000E+00 0.000E+00
BIGSUB  17        0   12.17180E+04    20.900     0.000    24.842     5.675    25.162     0.000     0.000     0.000     0.009     0.000     0.000     0.000     0.000     0.000     0.000     0.009     0.000     0.000 .00000E+00 0.000E+00 0.000E+00
BIGSUB  18        0   12.26090E+04    20.900     0.000    24.728     6.189     1.112     0.000     0.000     0.000     0.016     0.000     0.000     0.000     0.000     0.000     0.000     0.016     0.000     0.000 .00000E+00 0.000E+00 0.000E+00
BIGSUB  19        0   12.25380E+04    20.900     0.000    25.073     5.957    19.656     0.000     0.000     0.000     0.012     0.000     0.000     0.000     0.000     0.000     0.000     0.012     0.000     0.000 .00000E+00 0.000E+00 0.000E+00
BIGSUB  20        0   12.19820E+04    20.900     0.000    25.180     5.924    26.200     0.000     0.000     0.000     0.016     0.000     0.000     0.000     0.000     0.000     0.000     0.016     0.000     0.000 .00000E+00 0.000E+00 0.000E+00
BIGSUB   1        0 1990.12360E+04   289.400    40.213  1311.748   245.676    59.418    23.892     8.870    12.589    22.017     0.036     0.077     0.009     0.021     0.001     0.004     0.558     0.004     1.979 .00000E+00 0.000E+00 0.000E+00
BIGSUB   2        0 1990.37400E+03   289.400    40.212  1312.892   249.977    55.996    18.774     7.660     9.428    19.640     0.075     0.154     0.019     0.018     0.001     0.008     2.552     0.017     1.580 .00000E+00 0.000E+00 0.000E+00
BIGSUB   3        0 1990.14590E+04   289.400    40.213  1311.723   261.234    48.940    12.524     5.034     6.542    12.352     0.045     0.093     0.011     0.012     0.001     0.005     0.777     0.005     1.038 .00000E+00 0.000E+00 0.000E+00
BIGSUB   4        0 1990.91800E+03   289.400    40.213  1311.922   251.984    55.241    19.343     7.418    10.112    18.081     0.042     0.089     0.011     0.018     0.001     0.005     0.551     0.004     1.600 .00000E+00 0.000E+00 0.000E+00
BIGSUB   5        0 1990.37770E+04   289.400    40.211  1313.779   261.192    48.687    12.331     5.268     6.520    12.297     0.023     0.050     0.006     0.013     0.001     0.003     0.509     0.003     1.025 .00000E+00 0.000E+00 0.000E+00
BIGSUB   6        0 1990.18250E+04   289.400    40.209  1315.986   274.840    37.542     1.543     2.732     0.205     3.608     0.391     0.384     0.047     0.007     0.000     0.021     0.671     0.004     0.050 .00000E+00 0.000E+00 0.000E+00
BIGSUB   7        0 1990.14660E+04   289.400    40.209  1316.192   223.330    54.941    35.922    18.558    19.575    38.273     0.041     0.089     0.011     0.048     0.004     0.005     0.140     0.002     2.208 .00000E+00 0.000E+00 0.000E+00
BIGSUB   8        0 1990.34940E+04   289.400    40.204  1320.412   227.256    60.714    33.719    16.824    16.850    34.338     0.132     0.282     0.034     0.042     0.003     0.015     0.664     0.006     2.166 .00000E+00 0.000E+00 0.000E+00
BIGSUB   9        0 1990.47420E+04   222.400    41.010  1239.538   220.727    15.151     1.953     4.101     0.054     4.426     0.028     0.062     0.007     0.013     0.001     0.003     0.272     0.001     0.012 .00000E+00 0.000E+00 0.000E+00
BIGSUB  10        0 1990.13380E+04   222.400    41.007  1242.149   210.342    24.522     5.625     9.767     0.232    10.203     0.084     0.191     0.023     0.029     0.002     0.010     0.203     0.002     0.074 .00000E+00 0.000E+00 0.000E+00
BIGSUB  11        0 1990.24060E+04   329.184    90.798  1078.785   255.540    96.480     7.588     5.706     2.486     8.439     0.020     0.042     0.005     0.016     0.001     0.002     0.247     0.002     0.109 .00000E+00 0.000E+00 0.000E+00
BIGSUB  12        0 1990.19770E+04   292.300    99.262  1132.693   301.184     1.066    11.918    10.915     2.814    13.911     0.013     0.033     0.004     0.033     0.002     0.001     0.182     0.001     0.069 .00000E+00 0.000E+00 0.000E+00
BIGSUB  13        0 1990.16410E+04   329.184    90.795  1080.497   249.107    98.301    17.842    11.449     5.867    17.484     0.028     0.060     0.007     0.031     0.002     0.003     0.168     0.002     0.255 .00000E+00 0.000E+00 0.000E+00
BIGSUB  14        0 1990.52740E+04   292.300    99.245  1135.523   257.553    18.765    44.223    18.455    28.025    46.909     0.053     0.133     0.016     0.052     0.004     0.006     0.429     0.003     1.387 .00000E+00 0.000E+00 0.000E+00
BIGSUB  15        0 1990.42200E+03   329.184    90.792  1082.085   253.083    97.415    13.888     7.983     4.551    12.691     0.013     0.028     0.003     0.021     0.002     0.001     0.157     0.001     0.197 .00000E+00 0.000E+00 0.000E+00
BIGSUB  16        0 1990.13850E+04   329.184    90.790  1083.443   262.217    94.422     0.000     0.331     0.000     0.494     0.000     0.000     0.000     0.001     0.000     0.000     0.163     0.001     0.000 .00000E+00 0.000E+00 0.000E+00
BIGSUB  17        0 1990.17180E+04   292.300    99.227  1138.596   198.376    25.162    77.043    39.530    55.936    95.612     0.052     0.117     0.014     0.109     0.009     0.006     0.146     0.002     1.993 .00000E+00 0.000E+00 0.000E+00
BIGSUB  18        0 1990.26090E+04   292.300    99.233  1137.606   300.284     1.112    20.316     3.000     7.539    10.829     0.001     0.002     0.000     0.010     0.001     0.000     0.289     0.002     0.258 .00000E+00 0.000E+00 0.000E+00
BIGSUB  19        0 1990.25380E+04   292.300    99.216  1140.582   254.703    19.656    51.154    15.270    33.077    48.956     0.054     0.120     0.015     0.040     0.003     0.006     0.609     0.003     1.563 .00000E+00 0.000E+00 0.000E+00
BIGSUB  20        0 1990.19820E+04   292.300    99.211  1141.498   238.333    26.200    62.815    18.926    42.729    62.393     0.060     0.133     0.016     0.049     0.003     0.007     0.737     0.004     2.047 .00000E+00 0.000E+00 0.000E+00
BIGSUB   1        0    1.12360E+04    19.100    26.183    17.848     8.938    79.937     0.000     0.478     0.000     0.508     0.002     0.004     0.000     0.002     0.000     0.000     0.031     0.000     0.000 .00000E+00 0.000E+00 0.000E+00
BIGSUB   2        0    1.37400E+03    19.100    26.181    17.919     8.899    76.537     0.000     0.446     0.000     0.593     0.004     0.008     0.001     0.002     0.000     0.000     0.147     0.001     0.000 .00000E+00 0.000E+00 0.000E+00
BIGSUB   3        0    1.14590E+04    19.100    26.183    17.846     8.322    70.359     0.000     0.274     0.000     0.318     0.002     0.005     0.001     0.001     0.000     0.000     0.044     0.000     0.000 .00000E+00 0.000E+00 0.000E+00
BIGSUB   4        0    1.91800E+03    19.100    26.183    17.859     8.698    76.118     0.000     0.430     0.000     0.461     0.002     0.005     0.001     0.002     0.000     0.000     0.031     0.000     0.000 .00000E+00 0.000E+00 0.000E+00
BIGSUB   5        0    1.37770E+04    19.100    26.179    17.975     8.652    69.795     0.000     0.230     0.000     0.257     0.001     0.002     0.000     0.001     0.000     0.000     0.027     0.000     0.000 .00000E+00 0.000E+00 0.000E+00
BIGSUB   6        0    1.18250E+04    19.100    26.174    18.114     8.390    59.222     0.000     0.002     0.000     0.036     0.000     0.000     0.000     0.000     0.000     0.000     0.034     0.000     0.000 .00000E+00 0.000E+00 0.000E+00
BIGSUB   7        0    1.14660E+04    19.100    26.173    18.127     9.976    73.269     0.000     1.275     0.000     1.284     0.002     0.005     0.001     0.004     0.000     0.000     0.009     0.000     0.000 .00000E+00 0.000E+00 0.000E+00
BIGSUB   8        0    1.34940E+04    19.100    26.164    18.396    10.040    79.550     0.000     1.027     0.000     1.057     0.006     0.013     0.002     0.003     0.000     0.001     0.030     0.000     0.000 .00000E+00 0.000E+00 0.000E+00
BIGSUB   9        0    1.47420E+04    34.700    34.650    19.588     5.303    46.372     0.000     0.186     0.000     0.192     0.001     0.001     0.000     0.001     0.000     0.000     0.006     0.000     0.000 .00000E+00 0.000E+00 0.000E+00
BIGSUB  10        0    1.13380E+04    34.700    34.650    19.780     5.553    54.556     0.000     0.917     0.000     0.928     0.003     0.007     0.001     0.002     0.000     0.000     0.011     0.000     0.000 .00000E+00 0.000E+00 0.000E+00
BIGSUB  11        0    1.24060E+04    29.257     5.165    19.324     7.526    93.825     0.000     0.223     1.714     1.963     0.000     0.001     0.000     0.006     0.000     0.000     0.025     0.000     0.078 .00000E+00 0.000E+00 0.000E+00
BIGSUB  12        0    1.19770E+04    38.200    11.588    14.975     3.804     8.849     0.000     0.000     0.000     0.009     0.000     0.000     0.000     0.000     0.000     0.000     0.009     0.000     0.000 .00000E+00 0.000E+00 0.000E+00
BIGSUB  13        0    1.16410E+04    29.257     5.165    19.471     7.472    95.402     0.001     0.431     4.013     4.460     0.000     0.001     0.000     0.011     0.000     0.000     0.015     0.000     0.182 .00000E+00 0.000E+00 0.000E+00
BIGSUB  14        0    1.52740E+04    38.200    11.588    15.072     3.582    26.770     0.000     0.000     0.000     0.017     0.000     0.000     0.000     0.000     0.000     0.000     0.017     0.000     0.000 .00000E+00 0.000E+00 0.000E+00
BIGSUB  15        0    1.42200E+03    29.257     5.165    19.608     7.551    94.647     0.000     0.267     3.100     3.383     0.000     0.000     0.000     0.007     0.000     0.000     0.015     0.000     0.140 .00000E+00 0.000E+00 0.000E+00
BIGSUB  16        0    1.13850E+04    29.257     5.165    19.726     7.726    91.861     0.000     0.000     0.000     0.017     0.000     0.000     0.000     0.000     0.000     0.000     0.017     0.000     0.000 .00000E+00 0.000E+00 0.000E+00
BIGSUB  17        0    1.17180E+04    38.200    11.588    15.271     4.127    32.623     0.000     0.000     0.000     0.009     0.000     0.000     0.000     0.000     0.000     0.000     0.009     0.000     0.000 .00000E+00 0.000E+00 0.000E+00
BIGSUB  18        0    1.26090E+04    38.200    11.588    15.207     3.236     9.462     0.000     0.000     0.000     0.014     0.000     0.000     0.000     0.000     0.000     0.000     0.014     0.000     0.000 .00000E+00 0.000E+00 0.000E+00
BIGSUB  19        0    1.25380E+04    38.200    11.587    15.401     3.631    27.612     0.000     0.000     0.000     0.008     0.000     0.000     0.000     0.000     0.000     0.000     0.008     0.000     0.000 .00000E+00 0.000E+00 0.000E+00
BIGSUB  20        0    1.19820E+04    38.200    11.588    15.461     3.732    34.056     0.000     0.000     0.000     0.011     0.000     0.000     0.000     0.000     0.000     0.000     0.011     0.000     0.000 .00000E+00 0.000E+00 0.000E+00
BIGSUB   1        0    2.12360E+04    41.900    21.600    31.255    18.441   103.343     0.000     0.000     0.000     0.027     0.000     0.000     0.000     0.000     0.000     0.000     0.027     0.000     0.000 .00000E+00 0.000E+00 0.000E+00
BIGSUB   2        0    2.37400E+03    41.900    21.600    31.343    18.381    99.811     0.000     0.000     0.000     0.117     0.000     0.000     0.000     0.000     0.000     0.000     0.117     0.001     0.000 .00000E+00 0.000E+00 0.000E+00
BIGSUB   3        0    2.14590E+04    41.900    21.600    31.253    17.615    94.566     0.000     0.000     0.000     0.038     0.000     0.000     0.000     0.000     0.000     0.000     0.038     0.000     0.000 .00000E+00 0.000E+00 0.000E+00
BIGSUB   4        0    2.91800E+03    41.900    21.600    31.268    18.116    99.848     0.000     0.000     0.000     0.027     0.000     0.000     0.000     0.000     0.000     0.000     0.027     0.000     0.000 .00000E+00 0.000E+00 0.000E+00
BIGSUB   5        0    2.37770E+04    41.900    21.600    31.412    18.000    93.646     0.000     0.000     0.000     0.023     0.000     0.000     0.000     0.000     0.000     0.000     0.023     0.000     0.000 .00000E+00 0.000E+00 0.000E+00
BIGSUB   6        0    2.18250E+04    41.900    21.600    31.584    17.439    83.615     0.000     0.000     0.000     0.028     0.000     0.000     0.000     0.000     0.000     0.000     0.028     0.000     0.000 .00000E+00 0.000E+00 0.000E+00
BIGSUB   7        0    2.14660E+04    41.900    21.600    31.601    18.147    94.620     0.000     1.647     0.000     1.656     0.003     0.007     0.001     0.005     0.000     0.000     0.008     0.000     0.000 .00000E+00 0.000E+00 0.000E+00
BIGSUB   8        0    2.34940E+04    41.900    21.600    31.731    21.643    95.153     0.000     4.064     0.000     4.084     0.026     0.055     0.007     0.010     0.001     0.003     0.020     0.000     0.000 .00000E+00 0.000E+00 0.000E+00
BIGSUB   9        0    2.47420E+04    36.500    14.507    24.351    15.086    72.089     0.000     2.892     0.000     2.896     0.011     0.025     0.003     0.007     0.001     0.001     0.004     0.000     0.000 .00000E+00 0.000E+00 0.000E+00
BIGSUB  10        0    2.13380E+04    36.500    14.497    24.516    17.940    72.644     0.000     8.152     0.000     8.160     0.040     0.091     0.011     0.019     0.002     0.005     0.009     0.000     0.000 .00000E+00 0.000E+00 0.000E+00
BIGSUB  11        0    2.24060E+04    46.448    50.106    23.316    14.097   124.631     0.000    25.056     0.887    25.963     0.059     0.127     0.015     0.063     0.005     0.007     0.020     0.000     0.038 .00000E+00 0.000E+00 0.000E+00
BIGSUB  12        0    2.19770E+04    56.500    56.566    17.346     8.203    94.057     0.000     5.560     0.000     5.567     0.005     0.013     0.002     0.013     0.001     0.001     0.007     0.000     0.000 .00000E+00 0.000E+00 0.000E+00
BIGSUB  13        0    2.16410E+04    46.448    50.106    23.443    14.945   113.328     0.000    36.634     2.084    38.731     0.076     0.166     0.020     0.099     0.007     0.009     0.012     0.000     0.089 .00000E+00 0.000E+00 0.000E+00
BIGSUB  14        0    2.52740E+04    56.500    56.548    17.503     8.498   103.294     0.000    11.326     0.000    11.338     0.029     0.074     0.009     0.028     0.002     0.003     0.013     0.000     0.000 .00000E+00 0.000E+00 0.000E+00
BIGSUB  15        0    2.42200E+03    46.448    50.106    23.561    14.703   118.669     0.000    31.221     1.590    32.823     0.038     0.084     0.010     0.081     0.006     0.004     0.012     0.000     0.068 .00000E+00 0.000E+00 0.000E+00
BIGSUB  16        0    2.13850E+04    46.448    50.106    23.662    13.754   135.102     0.000    13.281     0.000    13.294     0.009     0.019     0.002     0.027     0.003     0.001     0.013     0.000     0.000 .00000E+00 0.000E+00 0.000E+00
BIGSUB  17        0    2.17180E+04    56.500    56.530    17.664     9.397    94.463     0.000    22.436     0.000    22.443     0.028     0.064     0.008     0.056     0.005     0.003     0.007     0.000     0.000 .00000E+00 0.000E+00 0.000E+00
BIGSUB  18        0    2.26090E+04    56.500    56.536    17.612     8.105    96.514     0.000     3.657     0.000     3.668     0.002     0.005     0.001     0.009     0.001     0.000     0.011     0.000     0.000 .00000E+00 0.000E+00 0.000E+00
BIGSUB  19        0    2.25380E+04    56.500    56.518    17.769     8.598   105.760     0.000    13.078     0.000    13.083     0.042     0.094     0.011     0.031     0.003     0.005     0.005     0.000     0.000 .00000E+00 0.000E+00 0.000E+00
BIGSUB  20        0    2.19820E+04    56.500    56.513    17.817     8.723   109.128     0.000    15.587     0.000    15.595     0.046     0.102     0.012     0.037     0.003     0.005     0.008     0.000     0.000 .00000E+00 0.000E+00 0.000E+00
BIGSUB   1        0    3.12360E+04    87.200     9.510    58.568    35.534   120.110    33.663     0.718     5.611     6.456     0.002     0.003     0.000     0.002     0.000     0.000     0.126     0.001     0.628 .00000E+00 0.000E+00 0.000E+00
BIGSUB   2        0    3.37400E+03    87.200     9.509    58.665    35.600   121.837    27.216     0.635     4.459     6.111     0.003     0.006     0.001     0.002     0.000     0.000     1.017     0.009     0.541 .00000E+00 0.000E+00 0.000E+00
BIGSUB   3        0    3.14590E+04    87.200     9.510    58.566    35.070   128.082    17.698     0.394     2.945     3.476     0.002     0.004     0.000     0.001     0.000     0.000     0.137     0.001     0.334 .00000E+00 0.000E+00 0.000E+00
BIGSUB   4        0    3.91800E+03    87.200     9.510    58.583    35.357   123.351    27.279     0.618     4.538     5.277     0.002     0.004     0.000     0.002     0.000     0.000     0.121     0.001     0.512 .00000E+00 0.000E+00 0.000E+00
BIGSUB   5        0    3.37770E+04    87.200     9.509    58.740    35.358   127.303    17.434     0.342     2.906     3.339     0.001     0.002     0.000     0.001     0.000     0.000     0.091     0.001     0.327 .00000E+00 0.000E+00 0.000E+00
BIGSUB   6        0    3.18250E+04    87.200     9.507    58.926    35.411   131.388     3.327     0.299     0.235     0.609     0.034     0.042     0.005     0.001     0.000     0.002     0.076     0.001     0.032 .00000E+00 0.000E+00 0.000E+00
BIGSUB   7        0    3.14660E+04    87.200     9.507    58.944    36.965    91.834    49.934     2.375     8.168    10.555     0.003     0.007     0.001     0.007     0.001     0.000     0.013     0.000     0.542 .00000E+00 0.000E+00 0.000E+00
BIGSUB   8        0    3.34940E+04    87.200     9.504    59.303    37.956    98.516    41.700     3.295     5.631     9.052     0.021     0.045     0.005     0.011     0.001     0.002     0.126     0.001     0.474 .00000E+00 0.000E+00 0.000E+00
BIGSUB   9        0    3.47420E+04    77.000    10.907    51.346    35.129   107.483     3.916     2.668     0.225     2.929     0.014     0.031     0.004     0.007     0.001     0.002     0.036     0.000     0.053 .00000E+00 0.000E+00 0.000E+00
BIGSUB  10        0    3.13380E+04    77.000    10.906    51.548    35.657    92.138    14.287     7.481     0.845     8.342     0.049     0.112     0.014     0.017     0.002     0.006     0.017     0.000     0.246 .00000E+00 0.000E+00 0.000E+00
BIGSUB  11        0    3.24060E+04    46.341    11.365    57.199    30.577   126.629    10.065     3.313     3.501     6.838     0.008     0.018     0.002     0.010     0.001     0.001     0.024     0.000     0.144 .00000E+00 0.000E+00 0.000E+00
BIGSUB  12        0    3.19770E+04    89.800     3.100    48.083    31.742   151.207     0.000     1.855     0.000     1.868     0.001     0.004     0.000     0.005     0.000     0.000     0.013     0.000     0.000 .00000E+00 0.000E+00 0.000E+00
BIGSUB  13        0    3.16410E+04    46.341    11.365    57.380    31.409    96.400    24.966     6.603     8.664    15.283     0.013     0.029     0.003     0.021     0.001     0.002     0.015     0.000     0.353 .00000E+00 0.000E+00 0.000E+00
BIGSUB  14        0    3.52740E+04    89.800     3.100    48.333    32.903   136.316    17.896     8.611     1.952    10.590     0.025     0.063     0.008     0.022     0.002     0.003     0.026     0.000     0.076 .00000E+00 0.000E+00 0.000E+00
BIGSUB  15        0    3.42200E+03    46.341    11.365    57.549    31.184   108.116    20.447     4.875     7.007    11.897     0.005     0.012     0.001     0.014     0.001     0.001     0.015     0.000     0.286 .00000E+00 0.000E+00 0.000E+00
BIGSUB  16        0    3.13850E+04    46.341    11.365    57.694    30.744   150.157     0.000     0.315     0.000     0.330     0.000     0.000     0.000     0.001     0.000     0.000     0.015     0.000     0.000 .00000E+00 0.000E+00 0.000E+00
BIGSUB  17        0    3.17180E+04    89.800     3.100    48.588    33.666    93.623    43.473    17.689     5.413    23.113     0.024     0.055     0.007     0.045     0.004     0.003     0.010     0.000     0.175 .00000E+00 0.000E+00 0.000E+00
BIGSUB  18        0    3.26090E+04    89.800     3.100    48.506    31.587   154.614     0.000     1.607     0.000     1.625     0.001     0.002     0.000     0.004     0.000     0.000     0.018     0.000     0.000 .00000E+00 0.000E+00 0.000E+00
BIGSUB  19        0    3.25380E+04    89.800     3.100    48.753    33.060   134.436    25.510     2.662     3.660     6.409     0.011     0.025     0.003     0.007     0.001     0.001     0.087     0.000     0.148 .00000E+00 0.000E+00 0.000E+00
BIGSUB  20        0    3.19820E+04    89.800     3.100    48.830    33.484   127.553    34.492     3.590     4.966     8.662     0.013     0.030     0.004     0.010     0.001     0.002     0.106     0.001     0.200 .00000E+00 0.000E+00 0.000E+00
BIGSUB   1        0    4.12360E+04    63.000     0.000   113.993    51.795   116.380    13.303     1.151    13.076    14.427     0.003     0.005     0.001     0.004     0.000     0.000     0.200     0.001     1.207 .00000E+00 0.000E+00 0.000E+00
BIGSUB   2        0    4.37400E+03    63.000     0.000   114.080    52.034   119.786    10.908     0.998    10.546    12.721     0.005     0.011     0.001     0.003     0.000     0.001     1.177     0.008     1.060 .00000E+00 0.000E+00 0.000E+00
[...]
BIGSUB  20        0   10.19820E+04    17.800     0.000    75.824    11.803    29.781     0.000     0.000     0.000     0.014     0.000     0.000     0.000     0.000     0.000     0.000     0.014     0.000     0.000 .00000E+00 0.000E+00 0.000E+00
BIGSUB   1        0   11.12360E+04    30.200     2.400    38.530     7.896    48.345     0.000     0.000     0.000     0.019     0.000     0.000     0.000     0.000     0.000     0.000     0.019     0.000     0.000 .00000E+00 0.000E+00 0.000E+00
BIGSUB   2        0   11.37400E+03    30.200     2.400    38.666     7.854    44.838     0.000     0.000     0.000     0.134     0.000     0.000     0.000     0.000     0.000     0.000     0.134     0.000     0.000 .00000E+00 0.000E+00 0.000E+00
BIGSUB   3        0   11.14590E+04    30.200     2.400    38.527     7.818    37.236     0.000     0.000     0.000     0.027     0.000     0.000     0.000     0.000     0.000     0.000     0.027     0.000     0.000 .00000E+00 0.000E+00 0.000E+00
BIGSUB   4        0   11.91800E+03    30.200     2.400    38.550     7.868    43.914     0.000     0.000     0.000     0.019     0.000     0.000     0.000     0.000     0.000     0.000     0.019     0.000     0.000 .00000E+00 0.000E+00 0.000E+00
BIGSUB   5        0   11.37770E+04    30.200     2.400    38.771     7.820    37.065     0.000     0.000     0.000     0.016     0.000     0.000     0.000     0.000     0.000     0.000     0.016     0.000     0.000 .00000E+00 0.000E+00 0.000E+00
BIGSUB   6        0   11.18250E+04    30.200     2.400    39.034     7.806    26.027     0.000     0.000     0.000     0.019     0.000     0.000     0.000     0.000     0.000     0.000     0.019     0.000     0.000 .00000E+00 0.000E+00 0.000E+00
BIGSUB   7        0   11.14660E+04    30.200     2.400    39.059     8.379    46.002     0.000     0.000     0.000     0.005     0.000     0.000     0.000     0.000     0.000     0.000     0.005     0.000     0.000 .00000E+00 0.000E+00 0.000E+00
BIGSUB   8        0   11.34940E+04    30.200     2.400    39.568     8.322    51.364     0.000     0.000     0.000     0.020     0.000     0.000     0.000     0.000     0.000     0.000     0.020     0.000     0.000 .00000E+00 0.000E+00 0.000E+00
BIGSUB   9        0   11.47420E+04    24.100     5.400    41.873    12.742    36.353     0.000     0.000     0.000     0.024     0.000     0.000     0.000     0.000     0.000     0.000     0.024     0.000     0.000 .00000E+00 0.000E+00 0.000E+00
BIGSUB  10        0   11.13380E+04    24.100     5.400    42.235    14.571    42.801     0.000     0.000     0.000     0.015     0.000     0.000     0.000     0.000     0.000     0.000     0.015     0.000     0.000 .00000E+00 0.000E+00 0.000E+00
BIGSUB  11        0   11.24060E+04    39.900     0.700    37.806    12.160    43.714     0.000     0.000     0.000     0.013     0.000     0.000     0.000     0.000     0.000     0.000     0.013     0.000     0.000 .00000E+00 0.000E+00 0.000E+00
BIGSUB  12        0   11.19770E+04    15.200     2.000    38.925    10.060    11.133     0.000     0.000     0.000     0.008     0.000     0.000     0.000     0.000     0.000     0.000     0.008     0.000     0.000 .00000E+00 0.000E+00 0.000E+00
BIGSUB  13        0   11.16410E+04    39.900     0.700    38.057    14.469    53.752     0.000     0.000     0.000     0.009     0.000     0.000     0.000     0.000     0.000     0.000     0.009     0.000     0.000 .00000E+00 0.000E+00 0.000E+00
BIGSUB  14        0   11.52740E+04    15.200     2.000    39.372     9.636    27.963     0.000     0.000     0.000     0.013     0.000     0.000     0.000     0.000     0.000     0.000     0.013     0.000     0.000 .00000E+00 0.000E+00 0.000E+00
BIGSUB  15        0   11.42200E+03    39.900     0.700    38.292    13.582    49.768     0.000     0.000     0.000     0.008     0.000     0.000     0.000     0.000     0.000     0.000     0.008     0.000     0.000 .00000E+00 0.000E+00 0.000E+00
BIGSUB  16        0   11.13850E+04    39.900     0.700    38.493    10.539    36.114     0.000     0.000     0.000     0.009     0.000     0.000     0.000     0.000     0.000     0.000     0.009     0.000     0.000 .00000E+00 0.000E+00 0.000E+00
BIGSUB  17        0   11.17180E+04    15.200     2.000    39.831     9.370    33.762     0.000     0.000     0.000     0.006     0.000     0.000     0.000     0.000     0.000     0.000     0.006     0.000     0.000 .00000E+00 0.000E+00 0.000E+00
BIGSUB  18        0   11.26090E+04    15.200     2.000    39.683     9.905    11.294     0.000     0.000     0.000     0.010     0.000     0.000     0.000     0.000     0.000     0.000     0.010     0.000     0.000 .00000E+00 0.000E+00 0.000E+00
BIGSUB  19        0   11.25380E+04    15.200     2.000    40.131     9.754    28.993     0.000     0.000     0.000     0.015     0.000     0.000     0.000     0.000     0.000     0.000     0.015     0.000     0.000 .00000E+00 0.000E+00 0.000E+00
BIGSUB  20        0   11.19820E+04    15.200     2.000    40.270     9.613    35.348     0.000     0.000     0.000     0.018     0.000     0.000     0.000     0.000     0.000     0.000     0.018     0.000     0.000 .00000E+00 0.000E+00 0.000E+00
BIGSUB   1        0   12.12360E+04    45.100     0.000    26.069    14.304    79.029     0.000     0.000     0.000     0.063     0.000     0.000     0.000     0.000     0.000     0.000     0.063     0.000     0.000 .00000E+00 0.000E+00 0.000E+00
BIGSUB   2        0   12.37400E+03    45.100     0.000    26.186    14.172    75.246     0.000     0.000     0.000     0.440     0.000     0.000     0.000     0.000     0.000     0.000     0.440     0.001     0.000 .00000E+00 0.000E+00 0.000E+00
BIGSUB   3        0   12.14590E+04    45.100     0.000    26.066    13.955    68.231     0.000     0.000     0.000     0.071     0.000     0.000     0.000     0.000     0.000     0.000     0.071     0.000     0.000 .00000E+00 0.000E+00 0.000E+00
BIGSUB   4        0   12.91800E+03    45.100     0.000    26.087    14.174    74.731     0.000     0.000     0.000     0.060     0.000     0.000     0.000     0.000     0.000     0.000     0.060     0.000     0.000 .00000E+00 0.000E+00 0.000E+00
BIGSUB   5        0   12.37770E+04    45.100     0.000    26.277    13.960    68.108     0.000     0.000     0.000     0.047     0.000     0.000     0.000     0.000     0.000     0.000     0.047     0.000     0.000 .00000E+00 0.000E+00 0.000E+00
BIGSUB   6        0   12.18250E+04    45.100     0.000    26.505    13.523    57.483     0.000     0.000     0.000     0.043     0.000     0.000     0.000     0.000     0.000     0.000     0.043     0.000     0.000 .00000E+00 0.000E+00 0.000E+00
BIGSUB   7        0   12.14660E+04    45.100     0.000    26.526    15.038    76.038     0.000     0.000     0.000     0.006     0.000     0.000     0.000     0.000     0.000     0.000     0.006     0.000     0.000 .00000E+00 0.000E+00 0.000E+00
BIGSUB   8        0   12.34940E+04    45.100     0.000    26.967    15.233    81.098     0.000     0.000     0.000     0.066     0.000     0.000     0.000     0.000     0.000     0.000     0.066     0.000     0.000 .00000E+00 0.000E+00 0.000E+00
BIGSUB   9        0   12.47420E+04    12.900     0.000    27.949     9.125    40.113     0.000     0.000     0.000     0.025     0.000     0.000     0.000     0.000     0.000     0.000     0.025     0.000     0.000 .00000E+00 0.000E+00 0.000E+00
BIGSUB  10        0   12.13380E+04    12.900     0.000    28.252    12.130    43.560     0.000     0.000     0.000     0.016     0.000     0.000     0.000     0.000     0.000     0.000     0.016     0.000     0.000 .00000E+00 0.000E+00 0.000E+00
BIGSUB  11        0   12.24060E+04    40.500     0.000    25.023    14.665    69.506     0.000     0.000     0.000     0.019     0.000     0.000     0.000     0.000     0.000     0.000     0.019     0.000     0.000 .00000E+00 0.000E+00 0.000E+00
BIGSUB  12        0   12.19770E+04    17.700     0.000    24.035     6.703    22.122     0.000     0.000     0.000     0.009     0.000     0.000     0.000     0.000     0.000     0.000     0.009     0.000     0.000 .00000E+00 0.000E+00 0.000E+00
BIGSUB  13        0   12.16410E+04    40.500     0.000    25.231    15.333    78.895     0.000     0.000     0.000     0.011     0.000     0.000     0.000     0.000     0.000     0.000     0.011     0.000     0.000 .00000E+00 0.000E+00 0.000E+00
BIGSUB  14        0   12.52740E+04    17.700     0.000    24.381     7.461    38.188     0.000     0.000     0.000     0.014     0.000     0.000     0.000     0.000     0.000     0.000     0.014     0.000     0.000 .00000E+00 0.000E+00 0.000E+00
BIGSUB  15        0   12.42200E+03    40.500     0.000    25.426    15.174    75.068     0.000     0.000     0.000     0.011     0.000     0.000     0.000     0.000     0.000     0.000     0.011     0.000     0.000 .00000E+00 0.000E+00 0.000E+00
BIGSUB  16        0   12.13850E+04    40.500     0.000    25.594    14.653    61.933     0.000     0.000     0.000     0.013     0.000     0.000     0.000     0.000     0.000     0.000     0.013     0.000     0.000 .00000E+00 0.000E+00 0.000E+00
BIGSUB  17        0   12.17180E+04    17.700     0.000    24.736     9.630    41.829     0.000     0.000     0.000     0.006     0.000     0.000     0.000     0.000     0.000     0.000     0.006     0.000     0.000 .00000E+00 0.000E+00 0.000E+00
BIGSUB  18        0   12.26090E+04    17.700     0.000    24.621     6.774    22.209     0.000     0.000     0.000     0.011     0.000     0.000     0.000     0.000     0.000     0.000     0.011     0.000     0.000 .00000E+00 0.000E+00 0.000E+00
BIGSUB  19        0   12.25380E+04    17.700     0.000    24.969     7.586    39.085     0.000     0.000     0.000     0.023     0.000     0.000     0.000     0.000     0.000     0.000     0.023     0.000     0.000 .00000E+00 0.000E+00 0.000E+00
BIGSUB  20        0   12.19820E+04    17.700     0.000    25.077     7.862    45.161     0.000     0.000     0.000     0.027     0.000     0.000     0.000     0.000     0.000     0.000     0.027     0.000     0.000 .00000E+00 0.000E+00 0.000E+00
BIGSUB   1        0 2001.12360E+04   175.100     4.600  1387.187   184.300    79.029     0.000     0.000     0.000     0.332     0.000     0.000     0.000     0.000     0.000     0.000     0.332     0.001     0.000 .00000E+00 0.000E+00 0.000E+00
BIGSUB   2        0 2001.37400E+03   175.100     4.600  1388.431   183.628    75.246     0.000     0.000     0.000     1.517     0.000     0.000     0.000     0.000     0.000     0.000     1.517     0.006     0.000 .00000E+00 0.000E+00 0.000E+00
BIGSUB   3        0 2001.14590E+04   175.100     4.600  1387.161   185.516    68.231     0.000     0.000     0.000     0.488     0.000     0.000     0.000     0.000     0.000     0.000     0.488     0.003     0.000 .00000E+00 0.000E+00 0.000E+00
BIGSUB   4        0 2001.91800E+03   175.100     4.600  1387.376   184.840    74.731     0.000     0.000     0.000     0.332     0.000     0.000     0.000     0.000     0.000     0.000     0.332     0.002     0.000 .00000E+00 0.000E+00 0.000E+00
BIGSUB   5        0 2001.37770E+04   175.100     4.600  1389.395   185.675    68.108     0.000     0.000     0.000     0.308     0.000     0.000     0.000     0.000     0.000     0.000     0.308     0.002     0.000 .00000E+00 0.000E+00 0.000E+00
BIGSUB   6        0 2001.18250E+04   175.100     4.600  1391.794   186.564    57.483     0.000     0.000     0.000     0.413     0.000     0.000     0.000     0.000     0.000     0.000     0.413     0.002     0.000 .00000E+00 0.000E+00 0.000E+00
BIGSUB   7        0 2001.14660E+04   175.100     4.600  1392.018   181.416    76.038     0.000     0.001     0.000     0.074     0.000     0.000     0.000     0.000     0.000     0.000     0.073     0.000     0.000 .00000E+00 0.000E+00 0.000E+00
BIGSUB   8        0 2001.34940E+04   175.100     4.600  1396.615   181.689    81.098     0.000     0.000     0.000     0.369     0.000     0.000     0.000     0.000     0.000     0.000     0.369     0.002     0.000 .00000E+00 0.000E+00 0.000E+00
BIGSUB   9        0 2001.47420E+04   200.400    10.600  1264.808   220.504    40.113     0.000     0.000     0.000     0.268     0.000     0.000     0.000     0.000     0.000     0.000     0.268     0.001     0.000 .00000E+00 0.000E+00 0.000E+00
BIGSUB  10        0 2001.13380E+04   200.400    10.600  1267.567   223.419    43.560     0.000     0.000     0.000     0.216     0.000     0.000     0.000     0.000     0.000     0.000     0.216     0.001     0.000 .00000E+00 0.000E+00 0.000E+00
BIGSUB  11        0 2001.24060E+04   213.100    22.300  1159.323   225.538    69.506     0.199     0.732     0.000     0.939     0.001     0.003     0.000     0.006     0.000     0.000     0.207     0.001     0.000 .00000E+00 0.000E+00 0.000E+00
BIGSUB  12        0 2001.19770E+04   180.000    51.817  1163.035   241.763    22.122     0.000     0.794     0.000     0.939     0.001     0.002     0.000     0.003     0.000     0.000     0.145     0.001     0.000 .00000E+00 0.000E+00 0.000E+00
BIGSUB  13        0 2001.16410E+04   213.100    22.300  1161.186   221.961    78.895     0.545     1.372     0.000     1.507     0.001     0.003     0.000     0.012     0.000     0.000     0.135     0.001     0.000 .00000E+00 0.000E+00 0.000E+00
BIGSUB  14        0 2001.52740E+04   180.000    51.812  1166.188   226.982    38.188     7.321     6.372     3.226     9.840     0.014     0.038     0.005     0.019     0.002     0.002     0.242     0.001     0.169 .00000E+00 0.000E+00 0.000E+00
BIGSUB  15        0 2001.42200E+03   213.100    22.300  1162.915   223.612    75.068     0.492     0.899     0.000     1.028     0.001     0.001     0.000     0.008     0.000     0.000     0.129     0.001     0.000 .00000E+00 0.000E+00 0.000E+00
BIGSUB  16        0 2001.13850E+04   213.100    22.300  1164.393   228.778    61.933     0.000     0.000     0.000     0.140     0.000     0.000     0.000     0.000     0.000     0.000     0.140     0.001     0.000 .00000E+00 0.000E+00 0.000E+00
BIGSUB  17        0 2001.17180E+04   180.000    51.806  1169.387   201.694    41.829    18.625    15.095    10.395    25.587     0.015     0.036     0.004     0.044     0.005     0.002     0.098     0.001     0.456 .00000E+00 0.000E+00 0.000E+00
BIGSUB  18        0 2001.26090E+04   180.000    51.808  1168.357   242.955    22.209     0.000     0.064     0.000     0.251     0.000     0.000     0.000     0.001     0.000     0.000     0.187     0.001     0.000 .00000E+00 0.000E+00 0.000E+00
BIGSUB  19        0 2001.25380E+04   180.000    51.803  1171.455   225.401    39.085    10.770     4.714     5.350    10.401     0.015     0.037     0.005     0.014     0.001     0.002     0.336     0.002     0.272 .00000E+00 0.000E+00 0.000E+00
BIGSUB  20        0 2001.19820E+04   180.000    51.801  1172.410   219.588    45.161    14.513     6.266     7.227    13.888     0.017     0.041     0.005     0.019     0.002     0.002     0.394     0.002     0.366 .00000E+00 0.000E+00 0.000E+00
BIGSUB   1        0 12.0.12360E+04   273.842    34.441  1301.699   247.482    79.029    18.842     5.057    11.888    17.495     0.013     0.030     0.004     0.013     0.001     0.002     0.551     0.003     0.848 .00000E+00 0.000E+00 0.000E+00
BIGSUB   2        0 12.0.37400E+03   273.842    34.440  1302.847   249.677    75.246    15.379     4.424     9.499    16.446     0.027     0.059     0.007     0.012     0.001     0.003     2.523     0.012     0.715 .00000E+00 0.000E+00 0.000E+00
BIGSUB   3        0 12.0.14590E+04   273.842    34.441  1301.675   257.318    68.231    10.971     3.067     6.695    10.544     0.017     0.037     0.004     0.008     0.001     0.002     0.782     0.004     0.476 .00000E+00 0.000E+00 0.000E+00
BIGSUB   4        0 12.0.91800E+03   273.842    34.441  1301.874   251.497    74.731    15.708     4.304     9.796    14.646     0.015     0.034     0.004     0.011     0.001     0.002     0.547     0.003     0.700 .00000E+00 0.000E+00 0.000E+00
BIGSUB   5        0 12.0.37770E+04   273.842    34.439  1303.735   257.827    68.108    10.310     3.317     6.249    10.054     0.009     0.021     0.003     0.009     0.001     0.001     0.488     0.002     0.441 .00000E+00 0.000E+00 0.000E+00
BIGSUB   6        0 12.0.18250E+04   273.842    34.436  1305.946   265.900    57.483     3.471     2.008     1.595     4.243     0.157     0.178     0.022     0.006     0.000     0.009     0.639     0.007     1.128 .00000E+00 0.000E+00 0.000E+00
BIGSUB   7        0 12.0.14660E+04   273.842    34.436  1306.152   233.229    76.038    27.099    10.382    17.575    28.085     0.015     0.034     0.004     0.032     0.003     0.002     0.129     0.001     0.856 .00000E+00 0.000E+00 0.000E+00
BIGSUB   8        0 12.0.34940E+04   273.842    34.431  1310.320   235.566    81.098    25.689     9.478    15.988    26.091     0.049     0.110     0.013     0.027     0.002     0.006     0.625     0.003     0.889 .00000E+00 0.000E+00 0.000E+00
BIGSUB   9        0 12.0.47420E+04   283.017    34.849  1206.171   267.457    40.113    10.934     2.993     6.554     9.937     0.012     0.027     0.003     0.010     0.001     0.001     0.390     0.002     0.624 .00000E+00 0.000E+00 0.000E+00
BIGSUB  10        0 12.0.13380E+04   283.017    34.846  1208.742   244.339    43.560    25.930    11.299    15.321    26.945     0.048     0.110     0.013     0.035     0.003     0.006     0.325     0.002     1.113 .00000E+00 0.000E+00 0.000E+00
BIGSUB  11        0 12.0.24060E+04   400.261    70.941  1092.950   306.369    69.506    58.283    30.947    43.185    74.522     0.063     0.141     0.017     0.090     0.008     0.007     0.390     0.002     1.307 .00000E+00 0.000E+00 0.000E+00
BIGSUB  12        0 12.0.19770E+04   347.875    57.316  1113.007   312.575    22.122    26.766     9.527    16.636    26.401     0.010     0.026     0.003     0.029     0.003     0.001     0.238     0.001     0.554 .00000E+00 0.000E+00 0.000E+00
BIGSUB  13        0 12.0.16410E+04   400.261    70.938  1094.717   266.148    78.895    91.152    38.278    71.178   109.712     0.071     0.158     0.019     0.106     0.009     0.008     0.256     0.002     2.034 .00000E+00 0.000E+00 0.000E+00
BIGSUB  14        0 12.0.52740E+04   347.875    57.309  1115.920   281.643    38.188    49.360    16.870    35.229    52.593     0.036     0.092     0.011     0.050     0.004     0.004     0.494     0.003     1.239 .00000E+00 0.000E+00 0.000E+00
BIGSUB  15        0 12.0.42200E+03   400.261    70.936  1096.356   282.474    75.068    80.105    33.514    61.515    95.275     0.038     0.087     0.011     0.092     0.008     0.005     0.246     0.001     1.763 .00000E+00 0.000E+00 0.000E+00
BIGSUB  16        0 12.0.13850E+04   400.261    70.934  1097.758   335.454    61.933    43.327    17.301    30.904    48.470     0.013     0.029     0.004     0.051     0.005     0.002     0.265     0.001     0.995 .00000E+00 0.000E+00 0.000E+00
BIGSUB  17        0 12.0.17180E+04   347.875    57.302  1118.941   237.028    41.829    77.190    32.750    58.580    91.501     0.035     0.080     0.010     0.099     0.008     0.004     0.171     0.001     1.691 .00000E+00 0.000E+00 0.000E+00
BIGSUB  18        0 12.0.26090E+04   347.875    57.304  1117.968   312.600    22.209    30.916     5.589    19.657    25.598     0.004     0.008     0.001     0.016     0.002     0.000     0.351     0.002     0.746 .00000E+00 0.000E+00 0.000E+00
BIGSUB  19        0 12.0.25380E+04   347.875    57.297  1120.895   279.343    39.085    55.655    13.710    39.880    54.301     0.038     0.086     0.010     0.039     0.003     0.004     0.712     0.003     1.348 .00000E+00 0.000E+00 0.000E+00
BIGSUB  20        0 12.0.19820E+04   347.875    57.295  1121.796   267.276    45.161    65.145    15.918    47.765    64.560     0.041     0.094     0.011     0.046     0.004     0.005     0.877     0.004     1.578 .00000E+00 0.000E+00 0.000E+00
