1
    SWAT May 6 2015    VER 2015/Rev 637                                                                  0/ 0/   0      0: 0: 0

    General Input/Output section (file.cio):                                        
    11/14/2011 12:00:00 AM ARCGIS-SWAT interface AV                                 
                                                                                    


       SUB      GIS  MON   AREAkm2  PRECIPmm SNOMELTmm     PETmm      ETmm      SWmm    PERCmm    SURQmm    GW_Qmm    WYLDmm  SYLDt/ha ORGNkg/ha ORGPkg/haNSURQkg/ha SOLPkg/ha SEDPkg/ha LAT Q(mm)LATNO3kg/hGWNO3kg/haCHOLAmic/LCBODU mg/L DOXQ mg/L TNO3kg/ha
BIGSUB   1        0    1.12360E+04    51.400    11.225    15.052     6.118    37.229     0.000    13.053     0.246    13.346     2.261     1.133     0.132     0.133     0.001     0.386     0.047     0.001     0.000 .00000E+00 0.000E+00 0.000E+00 0.000E+00
BIGSUB   2        0    1.37400E+03    51.400    11.225    15.113     5.898    34.756     0.000    14.660     0.252    15.218     6.514     1.637     0.188     0.157     0.001     0.537     0.305     0.004     0.000 .00000E+00 0.000E+00 0.000E+00 0.000E+00
BIGSUB   3        0    1.14590E+04    51.400    11.225    15.050     5.071    31.822     0.000    19.546     0.319    19.905     6.169     1.894     0.225     0.185     0.001     0.686     0.040     0.000     0.000 .00000E+00 0.000E+00 0.000E+00 0.000E+00
BIGSUB   4        0    1.91800E+03    51.400    11.225    15.061     5.701    33.344     0.000    15.357     0.236    15.638     2.914     1.342     0.157     0.160     0.002     0.470     0.045     0.001     0.000 .00000E+00 0.000E+00 0.000E+00 0.000E+00
BIGSUB   5        0    1.37770E+04    51.400    11.225    15.160     5.405    32.313     0.000    17.651     0.449    18.132     2.388     1.956     0.231     0.192     0.002     0.572     0.032     0.000     0.000 .00000E+00 0.000E+00 0.000E+00 0.000E+00
BIGSUB   6        0    1.18250E+04    51.400    11.225    15.279     4.611    24.581     0.000    22.680     0.593    23.291     5.055     2.675     0.319     0.238     0.002     0.795     0.018     0.000     0.000 .00000E+00 0.000E+00 0.000E+00 0.000E+00
BIGSUB   7        0    1.14660E+04    51.400    11.225    15.290     5.612    23.043     0.000    22.223     0.536    22.762     3.197     2.389     0.293     0.051     0.002     0.721     0.002     0.000     0.000 .00000E+00 0.000E+00 0.000E+00 0.000E+00
BIGSUB   8        0    1.34940E+04    51.400    11.225    15.520     6.737    36.046     0.000    13.835     0.245    14.129     2.969     1.900     0.219     0.154     0.001     0.498     0.049     0.000     0.000 .00000E+00 0.000E+00 0.000E+00 0.000E+00
BIGSUB   9        0    1.47420E+04    26.400    12.813    16.126     5.036    16.739     0.000     3.180     0.368     3.557     0.490     0.395     0.048     0.084     0.000     0.159     0.009     0.000     0.000 .00000E+00 0.000E+00 0.000E+00 0.000E+00
BIGSUB  10        0    1.13380E+04    26.400    12.807    16.283     6.050    19.304     0.000     2.805     0.185     2.994     1.579     0.778     0.094     0.062     0.000     0.231     0.005     0.000     0.000 .00000E+00 0.000E+00 0.000E+00 0.000E+00
BIGSUB  11        0    1.24060E+04    38.271    37.456    20.882     6.906    22.958     0.000    23.638     0.469    24.111     5.612     1.759     0.213     0.138     0.001     0.528     0.004     0.000     0.000 .00000E+00 0.000E+00 0.000E+00 0.000E+00
BIGSUB  12        0    1.19770E+04    46.500     4.125    14.944     4.373    26.851     0.000     3.399     0.633     4.035     0.218     0.280     0.033     0.087     0.000     0.072     0.003     0.000     0.000 .00000E+00 0.000E+00 0.000E+00 0.000E+00
BIGSUB  13        0    1.16410E+04    38.271    37.453    21.038     8.357    26.180     0.000    20.497     0.434    20.933     2.887     1.497     0.177     0.232     0.002     0.421     0.003     0.000     0.000 .00000E+00 0.000E+00 0.000E+00 0.000E+00
BIGSUB  14        0    1.52740E+04    46.500     4.125    15.141     4.642    22.886     0.000     3.230     0.803     4.039     0.203     0.211     0.025     0.083     0.000     0.060     0.007     0.000     0.000 .00000E+00 0.000E+00 0.000E+00 0.000E+00
BIGSUB  15        0    1.42200E+03    38.271    37.451    21.185     8.806    28.707     0.000    20.586     0.355    20.945     3.009     1.477     0.177     0.187     0.002     0.431     0.003     0.000     0.000 .00000E+00 0.000E+00 0.000E+00 0.000E+00
BIGSUB  16        0    1.13850E+04    38.271    37.448    21.310     6.188    19.507     0.000    24.491     0.501    24.995     2.385     1.467     0.173     0.319     0.002     0.489     0.003     0.000     0.000 .00000E+00 0.000E+00 0.000E+00 0.000E+00
BIGSUB  17        0    1.17180E+04    46.500     4.125    15.342     5.751    22.074     0.000     3.126     0.692     3.821     0.122     0.197     0.023     0.087     0.000     0.056     0.002     0.000     0.000 .00000E+00 0.000E+00 0.000E+00 0.000E+00
BIGSUB  18        0    1.26090E+04    46.500     4.125    15.277     4.088    21.366     0.000     3.370     0.732     4.106     0.122     0.155     0.018     0.085     0.000     0.053     0.004     0.000     0.000 .00000E+00 0.000E+00 0.000E+00 0.000E+00
BIGSUB  19        0    1.25380E+04    46.500     4.125    15.474     5.454    31.813     0.000     2.393     0.344     2.763     0.157     0.152     0.018     0.062     0.000     0.048     0.027     0.000     0.000 .00000E+00 0.000E+00 0.000E+00 0.000E+00
BIGSUB  20        0    1.19820E+04    46.500     4.125    15.535     5.897    35.447     0.000     1.964     0.330     2.327     0.214     0.134     0.016     0.054     0.000     0.044     0.033     0.000     0.000 .00000E+00 0.000E+00 0.000E+00 0.000E+00
BIGSUB   1        0    2.12360E+04    40.600    43.800    25.836    15.214    50.423     0.000    23.682     0.270    23.981     6.087     3.188     0.371     0.146     0.003     0.979     0.030     0.000     0.000 .00000E+00 0.000E+00 0.000E+00 0.000E+00
BIGSUB   2        0    2.37400E+03    40.600    43.798    25.908    14.652    47.019     0.000    25.042     0.283    25.453    17.965     4.142     0.475     0.153     0.002     1.238     0.128     0.003     0.000 .00000E+00 0.000E+00 0.000E+00 0.000E+00
BIGSUB   3        0    2.14590E+04    40.600    43.800    25.835    12.574    41.569     0.000    29.676     0.337    30.039    17.165     3.698     0.444     0.154     0.002     1.303     0.026     0.000     0.000 .00000E+00 0.000E+00 0.000E+00 0.000E+00
BIGSUB   4        0    2.91800E+03    40.600    43.800    25.847    14.167    45.690     0.000    25.630     0.260    25.918     8.214     3.462     0.403     0.157     0.002     1.101     0.028     0.000     0.000 .00000E+00 0.000E+00 0.000E+00 0.000E+00
BIGSUB   5        0    2.37770E+04    40.600    43.795    25.964    13.415    42.484     0.000    28.021     0.470    28.512     5.647     4.089     0.483     0.191     0.003     1.180     0.021     0.000     0.000 .00000E+00 0.000E+00 0.000E+00 0.000E+00
BIGSUB   6        0    2.18250E+04    40.600    43.790    26.104    11.789    31.521     0.000    32.570     0.605    33.189    11.376     4.527     0.542     0.219     0.003     1.363     0.013     0.000     0.000 .00000E+00 0.000E+00 0.000E+00 0.000E+00
BIGSUB   7        0    2.14660E+04    40.600    43.789    26.117    15.055    26.552     0.000    32.829     0.549    33.380     6.322     4.035     0.495     0.072     0.003     1.223     0.002     0.000     0.000 .00000E+00 0.000E+00 0.000E+00 0.000E+00
BIGSUB   8        0    2.34940E+04    40.600    43.779    26.378    17.160    39.915     0.000    30.786     0.280    31.093     9.961     5.532     0.634     0.214     0.003     1.424     0.027     0.000     0.000 .00000E+00 0.000E+00 0.000E+00 0.000E+00
BIGSUB   9        0    2.47420E+04    35.500    36.773    23.388     8.564    30.130     0.000    23.967     0.357    24.334     3.931     3.287     0.395     0.170     0.003     1.207     0.009     0.000     0.000 .00000E+00 0.000E+00 0.000E+00 0.000E+00
BIGSUB  10        0    2.13380E+04    35.500    36.769    23.547    10.403    30.181     0.000    25.165     0.186    25.356    10.678     5.737     0.694     0.196     0.003     1.702     0.004     0.000     0.000 .00000E+00 0.000E+00 0.000E+00 0.000E+00
BIGSUB  11        0    2.24060E+04    26.224     9.666    21.797     7.282    19.691     0.000     8.486     0.408     8.898     1.162     0.513     0.062     0.074     0.000     0.155     0.003     0.000     0.000 .00000E+00 0.000E+00 0.000E+00 0.000E+00
BIGSUB  12        0    2.19770E+04    44.900    32.625    19.464     5.645    34.351     0.000    20.048     0.554    20.604     1.429     1.772     0.211     0.233     0.002     0.459     0.003     0.000     0.000 .00000E+00 0.000E+00 0.000E+00 0.000E+00
BIGSUB  13        0    2.16410E+04    26.224     9.666    21.916     9.527    20.784     0.000     8.202     0.382     8.586     0.665     0.520     0.062     0.133     0.001     0.147     0.002     0.000     0.000 .00000E+00 0.000E+00 0.000E+00 0.000E+00
BIGSUB  14        0    2.52740E+04    44.900    32.625    19.642     5.797    30.393     0.000    19.525     0.708    20.238     1.511     1.417     0.168     0.248     0.002     0.415     0.005     0.000     0.000 .00000E+00 0.000E+00 0.000E+00 0.000E+00
BIGSUB  15        0    2.42200E+03    26.224     9.666    22.027     9.447    23.217     0.000     7.021     0.313     7.337     0.776     0.417     0.050     0.092     0.001     0.123     0.003     0.000     0.000 .00000E+00 0.000E+00 0.000E+00 0.000E+00
BIGSUB  16        0    2.13850E+04    26.224     9.666    22.122     5.902    17.398     0.000     8.544     0.436     8.982     0.518     0.443     0.052     0.166     0.001     0.149     0.002     0.000     0.000 .00000E+00 0.000E+00 0.000E+00 0.000E+00
BIGSUB  17        0    2.17180E+04    44.900    32.625    19.824     7.014    28.736     0.000    19.339     0.615    19.955     0.867     1.291     0.154     0.272     0.003     0.368     0.002     0.000     0.000 .00000E+00 0.000E+00 0.000E+00 0.000E+00
BIGSUB  18        0    2.26090E+04    44.900    32.625    19.765     5.231    29.285     0.000    19.819     0.647    20.469     0.880     1.015     0.121     0.242     0.002     0.355     0.003     0.000     0.000 .00000E+00 0.000E+00 0.000E+00 0.000E+00
BIGSUB  19        0    2.25380E+04    44.900    32.625    19.942     6.422    44.888     0.000    14.086     0.313    14.415     0.663     0.802     0.094     0.162     0.002     0.250     0.016     0.000     0.000 .00000E+00 0.000E+00 0.000E+00 0.000E+00
BIGSUB  20        0    2.19820E+04    44.900    32.625    19.997     6.773    50.421     0.000    11.835     0.303    12.157     0.753     0.702     0.082     0.124     0.001     0.225     0.019     0.000     0.000 .00000E+00 0.000E+00 0.000E+00 0.000E+00
BIGSUB   1        0    3.12360E+04    40.400     3.000    69.276    30.816    46.028     0.000    13.058     0.358    13.453     3.381     1.314     0.154     0.151     0.001     0.417     0.037     0.001     0.000 .00000E+00 0.000E+00 0.000E+00 0.000E+00
BIGSUB   2        0    3.37400E+03    40.400     3.000    69.392    29.560    42.463     0.000    14.276     0.373    14.838     9.868     1.515     0.175     0.166     0.001     0.468     0.190     0.003     0.000 .00000E+00 0.000E+00 0.000E+00 0.000E+00
BIGSUB   3        0    3.14590E+04    40.400     3.000    69.274    25.958    37.319     0.000    17.605     0.440    18.078     7.970     1.299     0.156     0.170     0.001     0.484     0.033     0.000     0.000 .00000E+00 0.000E+00 0.000E+00 0.000E+00
BIGSUB   4        0    3.91800E+03    40.400     3.000    69.294    28.858    41.505     0.000    14.844     0.341    15.220     4.502     1.430     0.168     0.170     0.001     0.472     0.035     0.001     0.000 .00000E+00 0.000E+00 0.000E+00 0.000E+00
BIGSUB   5        0    3.37770E+04    40.400     3.000    69.482    27.541    36.918     0.000    16.858     0.627    17.511     2.853     1.815     0.216     0.253     0.002     0.536     0.025     0.000     0.000 .00000E+00 0.000E+00 0.000E+00 0.000E+00
BIGSUB   6        0    3.18250E+04    40.400     3.000    69.706    24.135    25.093     0.000    20.660     0.811    21.486     5.577     1.963     0.236     0.308     0.002     0.600     0.015     0.000     0.000 .00000E+00 0.000E+00 0.000E+00 0.000E+00
BIGSUB   7        0    3.14660E+04    40.400     3.000    69.727    27.359    17.437     0.000    20.314     0.738    21.055     2.801     1.727     0.212     0.050     0.002     0.525     0.002     0.000     0.000 .00000E+00 0.000E+00 0.000E+00 0.000E+00
BIGSUB   8        0    3.34940E+04    40.400     3.000    70.158    32.450    33.788     0.000    13.051     0.381    13.466     2.993     1.312     0.153     0.224     0.001     0.355     0.034     0.000     0.000 .00000E+00 0.000E+00 0.000E+00 0.000E+00
BIGSUB   9        0    3.47420E+04    44.100     0.500    61.109    19.084    27.066     0.000    26.901     0.529    27.452     4.185     3.403     0.409     0.212     0.003     1.171     0.021     0.001     0.000 .00000E+00 0.000E+00 0.000E+00 0.000E+00
BIGSUB  10        0    3.13380E+04    44.100     0.500    61.359    22.957    22.768     0.000    27.975     0.285    28.265    12.175     5.095     0.615     0.323     0.003     1.510     0.006     0.000     0.000 .00000E+00 0.000E+00 0.000E+00 0.000E+00
BIGSUB  11        0    3.24060E+04     1.524    15.721    54.749    10.883    13.434     0.000    12.530     0.413    12.946     3.003     0.873     0.106     0.084     0.001     0.264     0.003     0.000     0.000 .00000E+00 0.000E+00 0.000E+00 0.000E+00
BIGSUB  12        0    3.19770E+04    82.900    67.538    49.658    34.208    43.875     0.000    82.373     0.819    83.195     8.761     8.409     1.003     0.681     0.008     2.194     0.003     0.000     0.000 .00000E+00 0.000E+00 0.000E+00 0.000E+00
BIGSUB  13        0    3.16410E+04     1.524    15.721    54.925    13.104    12.309     0.000    12.524     0.388    12.915     1.767     0.926     0.109     0.128     0.001     0.261     0.003     0.000     0.000 .00000E+00 0.000E+00 0.000E+00 0.000E+00
BIGSUB  14        0    3.52740E+04    82.900    67.513    49.929    34.502    39.624     0.000    80.812     1.073    81.892     9.943     7.124     0.848     0.690     0.007     2.122     0.007     0.000     0.000 .00000E+00 0.000E+00 0.000E+00 0.000E+00
BIGSUB  15        0    3.42200E+03     1.524    15.721    55.089    13.080    14.764     0.000    12.546     0.318    12.866     2.049     0.905     0.109     0.104     0.001     0.267     0.003     0.000     0.000 .00000E+00 0.000E+00 0.000E+00 0.000E+00
BIGSUB  16        0    3.13850E+04     1.524    15.721    55.229     9.125    12.896     0.000    12.528     0.440    12.970     1.303     0.761     0.090     0.139     0.001     0.256     0.002     0.000     0.000 .00000E+00 0.000E+00 0.000E+00 0.000E+00
BIGSUB  17        0    3.17180E+04    82.900    67.487    50.204    37.797    34.696     0.000    81.377     0.940    82.319     5.862     7.103     0.848     0.776     0.010     2.044     0.002     0.000     0.000 .00000E+00 0.000E+00 0.000E+00 0.000E+00
BIGSUB  18        0    3.26090E+04    82.900    67.495    50.115    31.202    41.833     0.000    81.252     0.973    82.229     5.713     5.355     0.639     0.661     0.009     1.889     0.004     0.000     0.000 .00000E+00 0.000E+00 0.000E+00 0.000E+00
BIGSUB  19        0    3.25380E+04    82.900    67.470    50.383    35.483    64.043     0.000    72.281     0.503    72.831     5.835     6.187     0.721     0.529     0.009     1.822     0.047     0.001     0.000 .00000E+00 0.000E+00 0.000E+00 0.000E+00
BIGSUB  20        0    3.19820E+04    82.900    67.462    50.466    36.936    71.989     0.000    68.348     0.501    68.906     6.655     6.189     0.717     0.471     0.008     1.813     0.057     0.001     0.000 .00000E+00 0.000E+00 0.000E+00 0.000E+00
BIGSUB   1        0    4.12360E+04    69.300     3.800   105.468    37.736    43.035     0.000    33.253     0.421    33.713    11.042     4.282     0.504     0.356     0.003     1.302     0.038     0.000     0.000 .00000E+00 0.000E+00 0.000E+00 0.000E+00
BIGSUB   2        0    4.37400E+03    69.300     3.800   105.546    36.265    38.922     0.000    35.440     0.425    36.067    31.472     4.540     0.528     0.394     0.002     1.347     0.201     0.001     0.000 .00000E+00 0.000E+00 0.000E+00 0.000E+00
BIGSUB   3        0    4.14590E+04    69.300     3.800   105.466    32.241    32.825     0.000    39.943     0.512    40.490    24.561     3.033     0.365     0.391     0.002     1.122     0.035     0.000     0.000 .00000E+00 0.000E+00 0.000E+00 0.000E+00
BIGSUB   4        0    4.91800E+03    69.300     3.800   105.480    35.636    38.040     0.000    36.159     0.393    36.589    14.752     4.391     0.516     0.398     0.003     1.388     0.036     0.000     0.000 .00000E+00 0.000E+00 0.000E+00 0.000E+00
BIGSUB   5        0    4.37770E+04    69.300     3.800   105.607    33.546    31.864     0.000    37.599     0.753    38.378     9.039     4.747     0.564     0.545     0.003     1.393     0.026     0.000     0.000 .00000E+00 0.000E+00 0.000E+00 0.000E+00
BIGSUB   6        0    4.18250E+04    69.300     3.800   105.759    28.939    18.768     0.000    42.332     0.976    43.323    15.019     4.212     0.507     0.637     0.003     1.301     0.015     0.000     0.000 .00000E+00 0.000E+00 0.000E+00 0.000E+00
BIGSUB   7        0    4.14660E+04    69.300     3.800   105.773    28.484    14.395     0.000    39.583     0.894    40.480     6.930     3.536     0.434     0.089     0.003     1.077     0.002     0.000     0.000 .00000E+00 0.000E+00 0.000E+00 0.000E+00
BIGSUB   8        0    4.34940E+04    69.300     3.800   106.061    36.976    32.685     0.000    31.744     0.476    32.261    11.676     4.224     0.493     0.412     0.003     1.151     0.041     0.000     0.000 .00000E+00 0.000E+00 0.000E+00 0.000E+00
BIGSUB   9        0    4.47420E+04    55.600     0.000    96.776    22.492    26.366     0.000    28.657     0.590    29.273     6.930     4.104     0.494     0.479     0.003     1.415     0.026     0.000     0.000 .00000E+00 0.000E+00 0.000E+00 0.000E+00
BIGSUB  10        0    4.13380E+04    55.600     0.000    96.948    23.619    22.377     0.000    31.178     0.308    31.493    18.551     6.174     0.746     0.589     0.003     1.842     0.006     0.000     0.000 .00000E+00 0.000E+00 0.000E+00 0.000E+00
BIGSUB  11        0    4.24060E+04    57.529     0.000    88.662    18.218    14.523     0.000    37.267     0.422    37.692     6.677     2.136     0.259     0.274     0.002     0.653     0.004     0.000     0.000 .00000E+00 0.000E+00 0.000E+00 0.000E+00
BIGSUB  12        0    4.19770E+04    64.700     0.000    85.056    31.634    28.791     0.000    41.391     0.950    42.345     6.001     3.882     0.465     0.453     0.003     1.028     0.004     0.000     0.000 .00000E+00 0.000E+00 0.000E+00 0.000E+00
BIGSUB  13        0    4.16410E+04    57.529     0.000    88.783    22.712    15.784     0.000    30.393     0.400    30.795     4.191     2.137     0.255     0.430     0.002     0.620     0.003     0.000     0.000 .00000E+00 0.000E+00 0.000E+00 0.000E+00
BIGSUB  14        0    4.52740E+04    64.700     0.000    85.253    29.858    26.494     0.000    38.132     1.266    39.405     5.272     2.682     0.321     0.391     0.003     0.813     0.007     0.000     0.000 .00000E+00 0.000E+00 0.000E+00 0.000E+00
BIGSUB  15        0    4.42200E+03    57.529     0.000    88.895    23.789    19.187     0.000    28.512     0.330    28.845     3.437     1.743     0.210     0.372     0.002     0.520     0.003     0.000     0.000 .00000E+00 0.000E+00 0.000E+00 0.000E+00
BIGSUB  16        0    4.13850E+04    57.529     0.000    88.991    16.009    13.982     0.000    39.427     0.449    39.878     3.170     2.134     0.254     0.766     0.004     0.733     0.002     0.000     0.000 .00000E+00 0.000E+00 0.000E+00 0.000E+00
BIGSUB  17        0    4.17180E+04    64.700     0.000    85.453    27.687    23.920     0.000    39.395     1.108    40.505     3.297     3.087     0.370     0.377     0.004     0.899     0.002     0.000     0.000 .00000E+00 0.000E+00 0.000E+00 0.000E+00
BIGSUB  18        0    4.26090E+04    64.700     0.000    85.389    30.396    27.984     0.000    38.468     1.142    39.615     3.004     2.175     0.260     0.396     0.004     0.776     0.005     0.000     0.000 .00000E+00 0.000E+00 0.000E+00 0.000E+00
BIGSUB  19        0    4.25380E+04    64.700     0.000    85.581    32.543    54.560     0.000    38.918     0.584    39.550     4.470     3.310     0.388     0.342     0.004     0.985     0.047     0.001     0.000 .00000E+00 0.000E+00 0.000E+00 0.000E+00
BIGSUB  20        0    4.19820E+04    64.700     0.000    85.641    33.394    63.968     0.000    36.944     0.585    37.587     5.311     3.346     0.390     0.312     0.004     0.995     0.057     0.001     0.000 .00000E+00 0.000E+00 0.000E+00 0.000E+00
BIGSUB   1        0    5.12360E+04    14.600     0.000   160.727    30.361    24.792     0.000     2.303     0.463     2.800     0.384     0.128     0.015     0.111     0.000     0.046     0.033     0.000     0.000 .00000E+00 0.000E+00 0.000E+00 0.000E+00
BIGSUB   2        0    5.37400E+03    14.600     0.000   160.753    29.352    21.199     0.000     2.540     0.458     3.143     0.977     0.089     0.011     0.141     0.000     0.033     0.144     0.001     0.000 .00000E+00 0.000E+00 0.000E+00 0.000E+00
BIGSUB   3        0    5.14590E+04    14.600     0.000   160.727    26.268    17.116     0.000     3.845     0.565     4.442     0.895     0.156     0.019     0.188     0.000     0.064     0.032     0.000     0.000 .00000E+00 0.000E+00 0.000E+00 0.000E+00
BIGSUB   4        0    5.91800E+03    14.600     0.000   160.731    29.008    20.555     0.000     2.759     0.427     3.218     0.474     0.131     0.016     0.141     0.000     0.051     0.032     0.000     0.000 .00000E+00 0.000E+00 0.000E+00 0.000E+00
BIGSUB   5        0    5.37770E+04    14.600     0.000   160.773    27.840    15.349     0.000     3.657     0.843     4.524     0.359     0.270     0.032     0.203     0.000     0.084     0.023     0.000     0.000 .00000E+00 0.000E+00 0.000E+00 0.000E+00
BIGSUB   6        0    5.18250E+04    14.600     0.000   160.822    25.458     3.676     0.000     4.893     1.098     6.006     0.538     0.343     0.041     0.264     0.000     0.107     0.015     0.000     0.000 .00000E+00 0.000E+00 0.000E+00 0.000E+00
BIGSUB   7        0    5.14660E+04    14.600     0.000   160.827    22.950     2.700     0.000     4.206     1.009     5.218     0.225     0.254     0.031     0.012     0.000     0.078     0.003     0.000     0.000 .00000E+00 0.000E+00 0.000E+00 0.000E+00
BIGSUB   8        0    5.34940E+04    14.600     0.000   160.916    31.490    14.112     0.000     1.483     0.536     2.056     0.413     0.141     0.017     0.061     0.000     0.040     0.038     0.000     0.000 .00000E+00 0.000E+00 0.000E+00 0.000E+00
BIGSUB   9        0    5.47420E+04    22.800     0.000   152.008    22.877    14.098     0.000    15.535     0.626    16.185     2.937     2.095     0.252     0.402     0.002     0.738     0.024     0.000     0.000 .00000E+00 0.000E+00 0.000E+00 0.000E+00
BIGSUB  10        0    5.13380E+04    22.800     0.000   152.061    23.257    11.053     0.000    11.196     0.323    11.526     8.717     2.293     0.277     0.123     0.001     0.687     0.007     0.000     0.000 .00000E+00 0.000E+00 0.000E+00 0.000E+00
BIGSUB  11        0    5.24060E+04    42.426     0.000   127.176    21.596    13.445     0.000    19.821     0.462    20.287     4.154     0.969     0.118     0.177     0.001     0.299     0.004     0.000     0.000 .00000E+00 0.000E+00 0.000E+00 0.000E+00
BIGSUB  12        0    5.19770E+04     7.800     0.000   138.410    22.049    11.695     0.000     8.036     0.943     8.983     0.273     0.796     0.096     0.303     0.001     0.212     0.003     0.000     0.000 .00000E+00 0.000E+00 0.000E+00 0.000E+00
BIGSUB  13        0    5.16410E+04    42.426     0.000   127.208    23.274    17.705     0.000    15.152     0.437    15.591     2.510     0.974     0.117     0.272     0.001     0.287     0.003     0.000     0.000 .00000E+00 0.000E+00 0.000E+00 0.000E+00
BIGSUB  14        0    5.52740E+04     7.800     0.000   138.467    20.077    11.389     0.000    10.815     1.279    12.100     0.260     0.519     0.062     0.287     0.001     0.163     0.007     0.000     0.000 .00000E+00 0.000E+00 0.000E+00 0.000E+00
BIGSUB  15        0    5.42200E+03    42.426     0.000   127.236    23.984    21.280     0.000    15.499     0.368    15.870     2.224     0.909     0.110     0.286     0.001     0.274     0.003     0.000     0.000 .00000E+00 0.000E+00 0.000E+00 0.000E+00
BIGSUB  16        0    5.13850E+04    42.426     0.000   127.259    21.953     9.729     0.000    22.671     0.499    23.173     2.066     1.078     0.129     0.808     0.002     0.378     0.002     0.000     0.000 .00000E+00 0.000E+00 0.000E+00 0.000E+00
BIGSUB  17        0    5.17180E+04     7.800     0.000   138.520    17.443    11.674     0.000     9.282     1.123    10.407     0.137     0.531     0.064     0.232     0.001     0.156     0.002     0.000     0.000 .00000E+00 0.000E+00 0.000E+00 0.000E+00
BIGSUB  18        0    5.26090E+04     7.800     0.000   138.503    21.021    11.702     0.000    11.120     1.154    12.278     0.176     0.457     0.055     0.327     0.001     0.164     0.004     0.000     0.000 .00000E+00 0.000E+00 0.000E+00 0.000E+00
BIGSUB  19        0    5.25380E+04     7.800     0.000   138.552    23.581    36.815     0.000     3.616     0.600     4.246     0.140     0.207     0.025     0.168     0.000     0.066     0.031     0.000     0.000 .00000E+00 0.000E+00 0.000E+00 0.000E+00
BIGSUB  20        0    5.19820E+04     7.800     0.000   138.566    24.516    45.678     0.000     2.831     0.603     3.471     0.176     0.200     0.023     0.132     0.000     0.061     0.037     0.000     0.000 .00000E+00 0.000E+00 0.000E+00 0.000E+00
BIGSUB   1        0    6.12360E+04     3.200     0.000   209.138    27.986     0.000     0.000     0.000     0.410     0.428     0.000     0.000     0.000     0.001     0.000     0.000     0.018     0.000     0.000 .00000E+00 0.000E+00 0.000E+00 0.000E+00
BIGSUB   2        0    6.37400E+03     3.200     0.000   209.116    24.382     0.000     0.000     0.000     0.406     0.441     0.000     0.000     0.000     0.002     0.000     0.000     0.035     0.001     0.000 .00000E+00 0.000E+00 0.000E+00 0.000E+00
BIGSUB   3        0    6.14590E+04     3.200     0.000   209.138     9.734    10.574     0.000     0.001     0.504     0.523     0.000     0.000     0.000     0.002     0.000     0.000     0.019     0.000     0.000 .00000E+00 0.000E+00 0.000E+00 0.000E+00
BIGSUB   4        0    6.91800E+03     3.200     0.000   209.135    23.749     0.000     0.000     0.000     0.379     0.396     0.000     0.000     0.000     0.002     0.000     0.000     0.017     0.000     0.000 .00000E+00 0.000E+00 0.000E+00 0.000E+00
BIGSUB   5        0    6.37770E+04     3.200     0.000   209.098    18.542     0.000     0.000     0.002     0.752     0.768     0.000     0.000     0.000     0.004     0.000     0.000     0.014     0.000     0.000 .00000E+00 0.000E+00 0.000E+00 0.000E+00
BIGSUB   6        0    6.18250E+04     3.200     0.000   209.052     6.867     0.000     0.000     0.002     0.984     0.998     0.000     0.000     0.000     0.005     0.000     0.000     0.012     0.000     0.000 .00000E+00 0.000E+00 0.000E+00 0.000E+00
BIGSUB   7        0    6.14660E+04     3.200     0.000   209.048     5.893     0.000     0.000     0.003     0.904     0.909     0.000     0.000     0.000     0.000     0.000     0.000     0.002     0.000     0.000 .00000E+00 0.000E+00 0.000E+00 0.000E+00
BIGSUB   8        0    6.34940E+04     3.200     0.000   208.953    17.305     0.000     0.000     0.001     0.475     0.496     0.000     0.000     0.000     0.002     0.000     0.000     0.021     0.000     0.000 .00000E+00 0.000E+00 0.000E+00 0.000E+00
BIGSUB   9        0    6.47420E+04     0.000     0.000   194.207    14.098     0.000     0.000     0.000     0.569     0.582     0.000     0.000     0.000     0.000     0.000     0.000     0.013     0.000     0.000 .00000E+00 0.000E+00 0.000E+00 0.000E+00
BIGSUB  10        0    6.13380E+04     0.000     0.000   194.144    11.053     0.000     0.000     0.000     0.291     0.298     0.000     0.000     0.000     0.000     0.000     0.000     0.007     0.000     0.000 .00000E+00 0.000E+00 0.000E+00 0.000E+00
BIGSUB  11        0    6.24060E+04     0.000     0.000   163.238    13.445     0.000     0.000     1.266     0.450     1.720     0.000     0.066     0.008     0.004     0.000     0.021     0.004     0.000     0.000 .00000E+00 0.000E+00 0.000E+00 0.000E+00
BIGSUB  12        0    6.19770E+04     0.000     0.000   178.358    11.695     0.000     0.000     0.000     0.831     0.834     0.000     0.000     0.000     0.000     0.000     0.000     0.003     0.000     0.000 .00000E+00 0.000E+00 0.000E+00 0.000E+00
BIGSUB  13        0    6.16410E+04     0.000     0.000   163.193    17.705     0.000     0.000     1.342     0.425     1.769     0.000     0.091     0.011     0.009     0.000     0.027     0.003     0.000     0.000 .00000E+00 0.000E+00 0.000E+00 0.000E+00
BIGSUB  14        0    6.52740E+04     0.000     0.000   178.273    11.389     0.000     0.000     0.000     1.115     1.120     0.000     0.000     0.000     0.000     0.000     0.000     0.006     0.000     0.000 .00000E+00 0.000E+00 0.000E+00 0.000E+00
BIGSUB  15        0    6.42200E+03     0.000     0.000   163.150    17.280     4.000     0.000     0.148     0.361     0.513     0.000     0.009     0.001     0.001     0.000     0.003     0.003     0.000     0.000 .00000E+00 0.000E+00 0.000E+00 0.000E+00
BIGSUB  16        0    6.13850E+04     0.000     0.000   163.112     9.729     0.000     0.000     1.077     0.491     1.571     0.000     0.058     0.007     0.014     0.000     0.020     0.003     0.000     0.000 .00000E+00 0.000E+00 0.000E+00 0.000E+00
BIGSUB  17        0    6.17180E+04     0.000     0.000   178.180    11.674     0.000     0.000     0.000     0.979     0.981     0.000     0.000     0.000     0.000     0.000     0.000     0.002     0.000     0.000 .00000E+00 0.000E+00 0.000E+00 0.000E+00
BIGSUB  18        0    6.26090E+04     0.000     0.000   178.211    11.702     0.000     0.000     0.000     1.006     1.010     0.000     0.000     0.000     0.000     0.000     0.000     0.004     0.000     0.000 .00000E+00 0.000E+00 0.000E+00 0.000E+00
BIGSUB  19        0    6.25380E+04     0.000     0.000   178.116    26.621    10.195     0.000     0.000     0.522     0.537     0.000     0.000     0.000     0.000     0.000     0.000     0.015     0.000     0.000 .00000E+00 0.000E+00 0.000E+00 0.000E+00
BIGSUB  20        0    6.19820E+04     0.000     0.000   178.086    31.918    13.761     0.000     0.000     0.524     0.542     0.000     0.000     0.000     0.000     0.000     0.000     0.018     0.000     0.000 .00000E+00 0.000E+00 0.000E+00 0.000E+00
BIGSUB   1        0    7.12360E+04     0.000     0.000   212.019     0.000     0.000     0.000     0.000     0.368     0.378     0.000     0.000     0.000     0.000     0.000     0.000     0.010     0.000     0.000 .00000E+00 0.000E+00 0.000E+00 0.000E+00
BIGSUB   2        0    7.37400E+03     0.000     0.000   212.020     0.000     0.000     0.000     0.000     0.364     0.381     0.000     0.000     0.000     0.000     0.000     0.000     0.017     0.001     0.000 .00000E+00 0.000E+00 0.000E+00 0.000E+00
BIGSUB   3        0    7.14590E+04     0.000     0.000   212.019     4.987     5.587     0.000     0.000     0.452     0.464     0.000     0.000     0.000     0.000     0.000     0.000     0.013     0.000     0.000 .00000E+00 0.000E+00 0.000E+00 0.000E+00
BIGSUB   4        0    7.91800E+03     0.000     0.000   212.019     0.000     0.000     0.000     0.000     0.340     0.350     0.000     0.000     0.000     0.000     0.000     0.000     0.010     0.000     0.000 .00000E+00 0.000E+00 0.000E+00 0.000E+00
BIGSUB   5        0    7.37770E+04     0.000     0.000   212.020     0.000     0.000     0.000     0.000     0.674     0.683     0.000     0.000     0.000     0.000     0.000     0.000     0.009     0.000     0.000 .00000E+00 0.000E+00 0.000E+00 0.000E+00
BIGSUB   6        0    7.18250E+04     0.000     0.000   212.020     0.000     0.000     0.000     0.000     0.882     0.893     0.000     0.000     0.000     0.000     0.000     0.000     0.010     0.000     0.000 .00000E+00 0.000E+00 0.000E+00 0.000E+00
BIGSUB   7        0    7.14660E+04     0.000     0.000   212.020     0.000     0.000     0.000     0.000     0.810     0.813     0.000     0.000     0.000     0.000     0.000     0.000     0.002     0.000     0.000 .00000E+00 0.000E+00 0.000E+00 0.000E+00
BIGSUB   8        0    7.34940E+04     0.000     0.000   212.012     0.000     0.000     0.000     0.000     0.425     0.439     0.000     0.000     0.000     0.000     0.000     0.000     0.014     0.000     0.000 .00000E+00 0.000E+00 0.000E+00 0.000E+00
BIGSUB   9        0    7.47420E+04     1.000     0.000   196.409     1.000     0.000     0.000     0.000     0.510     0.516     0.000     0.000     0.000     0.000     0.000     0.000     0.006     0.000     0.000 .00000E+00 0.000E+00 0.000E+00 0.000E+00
BIGSUB  10        0    7.13380E+04     1.000     0.000   196.401     1.000     0.000     0.000     0.000     0.261     0.267     0.000     0.000     0.000     0.000     0.000     0.000     0.006     0.000     0.000 .00000E+00 0.000E+00 0.000E+00 0.000E+00
BIGSUB  11        0    7.24060E+04     9.668     0.000   180.777     9.278     0.000     0.000     0.290     0.409     0.702     0.027     0.008     0.001     0.016     0.000     0.002     0.004     0.000     0.000 .00000E+00 0.000E+00 0.000E+00 0.000E+00
BIGSUB  12        0    7.19770E+04     0.200     0.000   186.728     0.200     0.000     0.000     0.000     0.745     0.748     0.000     0.000     0.000     0.000     0.000     0.000     0.003     0.000     0.000 .00000E+00 0.000E+00 0.000E+00 0.000E+00
BIGSUB  13        0    7.16410E+04     9.668     0.000   180.767     9.382     0.000     0.000     0.209     0.385     0.597     0.010     0.005     0.001     0.028     0.000     0.001     0.003     0.000     0.000 .00000E+00 0.000E+00 0.000E+00 0.000E+00
BIGSUB  14        0    7.52740E+04     0.200     0.000   186.711     0.200     0.000     0.000     0.000     0.999     1.004     0.000     0.000     0.000     0.000     0.000     0.000     0.005     0.000     0.000 .00000E+00 0.000E+00 0.000E+00 0.000E+00
BIGSUB  15        0    7.42200E+03     9.668     0.000   180.756    12.571     0.881     0.000     0.159     0.327     0.489     0.012     0.005     0.001     0.033     0.000     0.002     0.003     0.000     0.000 .00000E+00 0.000E+00 0.000E+00 0.000E+00
BIGSUB  16        0    7.13850E+04     9.668     0.000   180.745     9.156     0.000     0.000     0.406     0.446     0.855     0.019     0.011     0.001     0.132     0.000     0.004     0.002     0.000     0.000 .00000E+00 0.000E+00 0.000E+00 0.000E+00
BIGSUB  17        0    7.17180E+04     0.200     0.000   186.687     0.200     0.000     0.000     0.000     0.877     0.879     0.000     0.000     0.000     0.000     0.000     0.000     0.002     0.000     0.000 .00000E+00 0.000E+00 0.000E+00 0.000E+00
BIGSUB  18        0    7.26090E+04     0.200     0.000   186.696     0.200     0.000     0.000     0.000     0.902     0.905     0.000     0.000     0.000     0.000     0.000     0.000     0.003     0.000     0.000 .00000E+00 0.000E+00 0.000E+00 0.000E+00
BIGSUB  19        0    7.25380E+04     0.200     0.000   186.668    10.395     0.000     0.000     0.000     0.468     0.475     0.000     0.000     0.000     0.000     0.000     0.000     0.007     0.000     0.000 .00000E+00 0.000E+00 0.000E+00 0.000E+00
BIGSUB  20        0    7.19820E+04     0.200     0.000   186.658    13.961     0.000     0.000     0.000     0.470     0.478     0.000     0.000     0.000     0.000     0.000     0.000     0.009     0.000     0.000 .00000E+00 0.000E+00 0.000E+00 0.000E+00
BIGSUB   1        0    8.12360E+04     0.000     0.000   189.929     0.000     0.000     0.000     0.000     0.318     0.323     0.000     0.000     0.000     0.000     0.000     0.000     0.005     0.000     0.000 .00000E+00 0.000E+00 0.000E+00 0.000E+00
BIGSUB   2        0    8.37400E+03     0.000     0.000   190.021     0.000     0.000     0.000     0.000     0.315     0.320     0.000     0.000     0.000     0.000     0.000     0.000     0.005     0.000     0.000 .00000E+00 0.000E+00 0.000E+00 0.000E+00
BIGSUB   3        0    8.14590E+04     0.000     0.000   189.927     2.654     2.933     0.000     0.000     0.391     0.399     0.000     0.000     0.000     0.000     0.000     0.000     0.008     0.000     0.000 .00000E+00 0.000E+00 0.000E+00 0.000E+00
BIGSUB   4        0    8.91800E+03     0.000     0.000   189.943     0.000     0.000     0.000     0.000     0.294     0.300     0.000     0.000     0.000     0.000     0.000     0.000     0.005     0.000     0.000 .00000E+00 0.000E+00 0.000E+00 0.000E+00
BIGSUB   5        0    8.37770E+04     0.000     0.000   190.092     0.000     0.000     0.000     0.000     0.583     0.589     0.000     0.000     0.000     0.000     0.000     0.000     0.006     0.000     0.000 .00000E+00 0.000E+00 0.000E+00 0.000E+00
BIGSUB   6        0    8.18250E+04     0.000     0.000   190.268     0.000     0.000     0.000     0.000     0.763     0.771     0.000     0.000     0.000     0.000     0.000     0.000     0.008     0.000     0.000 .00000E+00 0.000E+00 0.000E+00 0.000E+00
BIGSUB   7        0    8.14660E+04     0.000     0.000   190.284     0.000     0.000     0.000     0.000     0.701     0.703     0.000     0.000     0.000     0.000     0.000     0.000     0.002     0.000     0.000 .00000E+00 0.000E+00 0.000E+00 0.000E+00
BIGSUB   8        0    8.34940E+04     0.000     0.000   190.617     0.000     0.000     0.000     0.000     0.368     0.376     0.000     0.000     0.000     0.000     0.000     0.000     0.008     0.000     0.000 .00000E+00 0.000E+00 0.000E+00 0.000E+00
BIGSUB   9        0    8.47420E+04     0.500     0.000   187.150     0.500     0.000     0.000     0.000     0.441     0.444     0.000     0.000     0.000     0.000     0.000     0.000     0.003     0.000     0.000 .00000E+00 0.000E+00 0.000E+00 0.000E+00
BIGSUB  10        0    8.13380E+04     0.500     0.000   187.362     0.500     0.000     0.000     0.000     0.226     0.231     0.000     0.000     0.000     0.000     0.000     0.000     0.005     0.000     0.000 .00000E+00 0.000E+00 0.000E+00 0.000E+00
BIGSUB  11        0    8.24060E+04     0.000     0.000   176.056     0.000     0.000     0.000     0.000     0.361     0.364     0.000     0.000     0.000     0.000     0.000     0.000     0.004     0.000     0.000 .00000E+00 0.000E+00 0.000E+00 0.000E+00
BIGSUB  12        0    8.19770E+04     0.000     0.000   180.679     0.000     0.000     0.000     0.000     0.644     0.647     0.000     0.000     0.000     0.000     0.000     0.000     0.002     0.000     0.000 .00000E+00 0.000E+00 0.000E+00 0.000E+00
BIGSUB  13        0    8.16410E+04     0.000     0.000   176.210     0.000     0.000     0.000     0.000     0.339     0.341     0.000     0.000     0.000     0.000     0.000     0.000     0.003     0.000     0.000 .00000E+00 0.000E+00 0.000E+00 0.000E+00
BIGSUB  14        0    8.52740E+04     0.000     0.000   180.945     0.000     0.000     0.000     0.000     0.864     0.868     0.000     0.000     0.000     0.000     0.000     0.000     0.004     0.000     0.000 .00000E+00 0.000E+00 0.000E+00 0.000E+00
BIGSUB  15        0    8.42200E+03     0.000     0.000   176.352     0.881     0.000     0.000     0.000     0.287     0.290     0.000     0.000     0.000     0.000     0.000     0.000     0.003     0.000     0.000 .00000E+00 0.000E+00 0.000E+00 0.000E+00
BIGSUB  16        0    8.13850E+04     0.000     0.000   176.472     0.000     0.000     0.000     0.000     0.394     0.396     0.000     0.000     0.000     0.000     0.000     0.000     0.002     0.000     0.000 .00000E+00 0.000E+00 0.000E+00 0.000E+00
BIGSUB  17        0    8.17180E+04     0.000     0.000   181.211     0.000     0.000     0.000     0.000     0.759     0.760     0.000     0.000     0.000     0.000     0.000     0.000     0.002     0.000     0.000 .00000E+00 0.000E+00 0.000E+00 0.000E+00
BIGSUB  18        0    8.26090E+04     0.000     0.000   181.126     0.000     0.000     0.000     0.000     0.780     0.783     0.000     0.000     0.000     0.000     0.000     0.000     0.003     0.000     0.000 .00000E+00 0.000E+00 0.000E+00 0.000E+00
BIGSUB  19        0    8.25380E+04     0.000     0.000   181.382     0.000     0.000     0.000     0.000     0.405     0.409     0.000     0.000     0.000     0.000     0.000     0.000     0.004     0.000     0.000 .00000E+00 0.000E+00 0.000E+00 0.000E+00
BIGSUB  20        0    8.19820E+04     0.000     0.000   181.460     0.000     0.000     0.000     0.000     0.406     0.411     0.000     0.000     0.000     0.000     0.000     0.000     0.004     0.000     0.000 .00000E+00 0.000E+00 0.000E+00 0.000E+00
BIGSUB   1        0    9.12360E+04     0.000     0.000   154.252     0.000     0.000     0.000     0.000     0.267     0.270     0.000     0.000     0.000     0.000     0.000     0.000     0.003     0.000     0.000 .00000E+00 0.000E+00 0.000E+00 0.000E+00
BIGSUB   2        0    9.37400E+03     0.000     0.000   154.449     0.000     0.000     0.000     0.000     0.264     0.267     0.000     0.000     0.000     0.000     0.000     0.000     0.003     0.000     0.000 .00000E+00 0.000E+00 0.000E+00 0.000E+00
BIGSUB   3        0    9.14590E+04     0.000     0.000   154.247     0.922     2.011     0.000     0.000     0.328     0.333     0.000     0.000     0.000     0.000     0.000     0.000     0.006     0.000     0.000 .00000E+00 0.000E+00 0.000E+00 0.000E+00
BIGSUB   4        0    9.91800E+03     0.000     0.000   154.282     0.000     0.000     0.000     0.000     0.247     0.250     0.000     0.000     0.000     0.000     0.000     0.000     0.003     0.000     0.000 .00000E+00 0.000E+00 0.000E+00 0.000E+00
BIGSUB   5        0    9.37770E+04     0.000     0.000   154.602     0.000     0.000     0.000     0.000     0.489     0.493     0.000     0.000     0.000     0.000     0.000     0.000     0.004     0.000     0.000 .00000E+00 0.000E+00 0.000E+00 0.000E+00
BIGSUB   6        0    9.18250E+04     0.000     0.000   154.983     0.000     0.000     0.000     0.000     0.640     0.646     0.000     0.000     0.000     0.000     0.000     0.000     0.006     0.000     0.000 .00000E+00 0.000E+00 0.000E+00 0.000E+00
BIGSUB   7        0    9.14660E+04     0.000     0.000   155.018     0.000     0.000     0.000     0.000     0.588     0.590     0.000     0.000     0.000     0.000     0.000     0.000     0.002     0.000     0.000 .00000E+00 0.000E+00 0.000E+00 0.000E+00
BIGSUB   8        0    9.34940E+04     0.000     0.000   155.749     0.000     0.000     0.000     0.000     0.309     0.314     0.000     0.000     0.000     0.000     0.000     0.000     0.005     0.000     0.000 .00000E+00 0.000E+00 0.000E+00 0.000E+00
BIGSUB   9        0    9.47420E+04     0.000     0.000   151.075     0.000     0.000     0.000     0.000     0.370     0.372     0.000     0.000     0.000     0.000     0.000     0.000     0.002     0.000     0.000 .00000E+00 0.000E+00 0.000E+00 0.000E+00
BIGSUB  10        0    9.13380E+04     0.000     0.000   151.541     0.000     0.000     0.000     0.000     0.189     0.194     0.000     0.000     0.000     0.000     0.000     0.000     0.004     0.000     0.000 .00000E+00 0.000E+00 0.000E+00 0.000E+00
BIGSUB  11        0    9.24060E+04     1.380     0.000   121.829     1.380     0.000     0.000     0.000     0.303     0.306     0.000     0.000     0.000     0.000     0.000     0.000     0.003     0.000     0.000 .00000E+00 0.000E+00 0.000E+00 0.000E+00
BIGSUB  12        0    9.19770E+04     0.000     0.000   137.300     0.000     0.000     0.000     0.000     0.541     0.543     0.000     0.000     0.000     0.000     0.000     0.000     0.002     0.000     0.000 .00000E+00 0.000E+00 0.000E+00 0.000E+00
BIGSUB  13        0    9.16410E+04     1.380     0.000   122.115     1.380     0.000     0.000     0.000     0.284     0.286     0.000     0.000     0.000     0.000     0.000     0.000     0.002     0.000     0.000 .00000E+00 0.000E+00 0.000E+00 0.000E+00
BIGSUB  14        0    9.52740E+04     0.000     0.000   137.661     0.000     0.000     0.000     0.000     0.725     0.728     0.000     0.000     0.000     0.000     0.000     0.000     0.003     0.000     0.000 .00000E+00 0.000E+00 0.000E+00 0.000E+00
BIGSUB  15        0    9.42200E+03     1.380     0.000   122.381     1.380     0.000     0.000     0.000     0.241     0.243     0.000     0.000     0.000     0.000     0.000     0.000     0.002     0.000     0.000 .00000E+00 0.000E+00 0.000E+00 0.000E+00
BIGSUB  16        0    9.13850E+04     1.380     0.000   122.608     1.380     0.000     0.000     0.000     0.330     0.332     0.000     0.000     0.000     0.000     0.000     0.000     0.002     0.000     0.000 .00000E+00 0.000E+00 0.000E+00 0.000E+00
BIGSUB  17        0    9.17180E+04     0.000     0.000   138.230     0.000     0.000     0.000     0.000     0.636     0.638     0.000     0.000     0.000     0.000     0.000     0.000     0.001     0.000     0.000 .00000E+00 0.000E+00 0.000E+00 0.000E+00
BIGSUB  18        0    9.26090E+04     0.000     0.000   138.047     0.000     0.000     0.000     0.000     0.654     0.657     0.000     0.000     0.000     0.000     0.000     0.000     0.002     0.000     0.000 .00000E+00 0.000E+00 0.000E+00 0.000E+00
BIGSUB  19        0    9.25380E+04     0.000     0.000   138.599     0.000     0.000     0.000     0.000     0.340     0.342     0.000     0.000     0.000     0.000     0.000     0.000     0.002     0.000     0.000 .00000E+00 0.000E+00 0.000E+00 0.000E+00
BIGSUB  20        0    9.19820E+04     0.000     0.000   138.769     0.000     0.000     0.000     0.000     0.341     0.343     0.000     0.000     0.000     0.000     0.000     0.000     0.002     0.000     0.000 .00000E+00 0.000E+00 0.000E+00 0.000E+00
BIGSUB   1        0   10.12360E+04    17.900     0.000    88.216     9.166     7.121     0.000     1.463     0.245     1.716     0.270     0.051     0.006     0.248     0.000     0.022     0.008     0.000     0.000 .00000E+00 0.000E+00 0.000E+00 0.000E+00
BIGSUB   2        0   10.37400E+03    17.900     0.000    88.421     9.154     6.763     0.000     1.720     0.244     2.023     0.683     0.041     0.005     0.367     0.000     0.017     0.059     0.002     0.000 .00000E+00 0.000E+00 0.000E+00 0.000E+00
BIGSUB   3        0   10.14590E+04    17.900     0.000    88.212     9.227     7.712     0.000     2.669     0.305     2.985     0.589     0.086     0.010     0.453     0.000     0.037     0.010     0.000     0.000 .00000E+00 0.000E+00 0.000E+00 0.000E+00
BIGSUB   4        0   10.91800E+03    17.900     0.000    88.247     9.125     6.622     0.000     1.961     0.228     2.197     0.335     0.069     0.008     0.334     0.000     0.030     0.008     0.000     0.000 .00000E+00 0.000E+00 0.000E+00 0.000E+00
BIGSUB   5        0   10.37770E+04    17.900     0.000    88.580     9.237     6.957     0.000     1.374     0.454     1.835     0.142     0.067     0.008     0.535     0.000     0.021     0.007     0.000     0.000 .00000E+00 0.000E+00 0.000E+00 0.000E+00
BIGSUB   6        0   10.18250E+04    17.900     0.000    88.976     9.227     6.286     0.000     1.836     0.600     2.444     0.259     0.085     0.010     0.708     0.000     0.027     0.007     0.000     0.000 .00000E+00 0.000E+00 0.000E+00 0.000E+00
BIGSUB   7        0   10.14660E+04    17.900     0.000    89.013     8.674     6.787     0.000     1.938     0.551     2.491     0.182     0.099     0.012     0.005     0.000     0.030     0.002     0.000     0.000 .00000E+00 0.000E+00 0.000E+00 0.000E+00
BIGSUB   8        0   10.34940E+04    17.900     0.000    89.777     9.051     7.791     0.000     0.912     0.282     1.204     0.243     0.067     0.008     0.285     0.000     0.020     0.010     0.000     0.000 .00000E+00 0.000E+00 0.000E+00 0.000E+00
BIGSUB   9        0   10.47420E+04    20.400     0.000    81.612     8.308     8.005     0.000     3.028     0.347     3.379     0.346     0.177     0.021     0.653     0.000     0.074     0.004     0.000     0.000 .00000E+00 0.000E+00 0.000E+00 0.000E+00
BIGSUB  10        0   10.13380E+04    20.400     0.000    82.069     7.636    10.409     0.000     1.924     0.178     2.107     0.776     0.173     0.021     0.479     0.000     0.053     0.004     0.000     0.000 .00000E+00 0.000E+00 0.000E+00 0.000E+00
BIGSUB  11        0   10.24060E+04    19.432     0.000    65.404     8.463     6.521     0.000     4.126     0.291     4.420     0.574     0.150     0.018     0.096     0.000     0.047     0.003     0.000     0.000 .00000E+00 0.000E+00 0.000E+00 0.000E+00
BIGSUB  12        0   10.19770E+04    18.400     0.000    73.005     5.465     9.280     0.000     2.817     0.492     3.311     0.118     0.090     0.011     0.485     0.000     0.024     0.002     0.000     0.000 .00000E+00 0.000E+00 0.000E+00 0.000E+00
BIGSUB  13        0   10.16410E+04    19.432     0.000    65.694     9.740     6.507     0.000     2.919     0.271     3.192     0.206     0.097     0.012     0.161     0.000     0.029     0.002     0.000     0.000 .00000E+00 0.000E+00 0.000E+00 0.000E+00
BIGSUB  14        0   10.52740E+04    18.400     0.000    73.547     5.632     7.829     0.000     3.646     0.657     4.306     0.234     0.129     0.016     0.554     0.000     0.043     0.003     0.000     0.000 .00000E+00 0.000E+00 0.000E+00 0.000E+00
BIGSUB  15        0   10.42200E+03    19.432     0.000    65.964     9.184     7.611     0.000     2.453     0.227     2.683     0.209     0.083     0.010     0.187     0.000     0.025     0.003     0.000     0.000 .00000E+00 0.000E+00 0.000E+00 0.000E+00
BIGSUB  16        0   10.13850E+04    19.432     0.000    66.195     9.437     4.027     0.000     5.631     0.317     5.950     0.313     0.189     0.023     0.697     0.000     0.070     0.002     0.000     0.000 .00000E+00 0.000E+00 0.000E+00 0.000E+00
BIGSUB  17        0   10.17180E+04    18.400     0.000    74.101     5.958     9.015     0.000     2.565     0.576     3.143     0.100     0.104     0.013     0.202     0.000     0.031     0.001     0.000     0.000 .00000E+00 0.000E+00 0.000E+00 0.000E+00
BIGSUB  18        0   10.26090E+04    18.400     0.000    73.922     5.489     6.761     0.000     4.808     0.593     5.403     0.219     0.165     0.020     0.799     0.000     0.060     0.002     0.000     0.000 .00000E+00 0.000E+00 0.000E+00 0.000E+00
BIGSUB  19        0   10.25380E+04    18.400     0.000    74.462     6.091     9.056     0.000     2.981     0.307     3.291     0.129     0.103     0.012     0.455     0.000     0.038     0.003     0.000     0.000 .00000E+00 0.000E+00 0.000E+00 0.000E+00
BIGSUB  20        0   10.19820E+04    18.400     0.000    74.629     6.284     8.873     0.000     3.065     0.307     3.376     0.317     0.102     0.012     1.031     0.000     0.043     0.004     0.000     0.000 .00000E+00 0.000E+00 0.000E+00 0.000E+00
BIGSUB   1        0   11.12360E+04    13.000     0.000    54.578     6.969     9.835     0.000     3.215     0.222     3.452     0.987     0.147     0.018     0.090     0.000     0.060     0.014     0.000     0.000 .00000E+00 0.000E+00 0.000E+00 0.000E+00
BIGSUB   2        0   11.37400E+03    13.000     0.000    54.774     6.887     9.144     0.000     3.552     0.225     3.870     2.771     0.118     0.014     0.108     0.000     0.047     0.093     0.001     0.000 .00000E+00 0.000E+00 0.000E+00 0.000E+00
BIGSUB   3        0   11.14590E+04    13.000     0.000    54.573     6.384     8.427     0.000     5.776     0.287     6.079     2.142     0.234     0.028     0.164     0.000     0.099     0.016     0.000     0.000 .00000E+00 0.000E+00 0.000E+00 0.000E+00
BIGSUB   4        0   11.91800E+03    13.000     0.000    54.607     6.708     8.618     0.000     4.194     0.212     4.420     1.288     0.196     0.024     0.120     0.000     0.081     0.014     0.000     0.000 .00000E+00 0.000E+00 0.000E+00 0.000E+00
BIGSUB   5        0   11.37770E+04    13.000     0.000    54.927     6.780     9.234     0.000     3.804     0.413     4.228     0.589     0.240     0.029     0.079     0.000     0.076     0.011     0.000     0.000 .00000E+00 0.000E+00 0.000E+00 0.000E+00
BIGSUB   6        0   11.18250E+04    13.000     0.000    55.309     6.357     7.414     0.000     5.349     0.553     5.912     1.418     0.323     0.039     0.105     0.000     0.102     0.010     0.001     0.000 .00000E+00 0.000E+00 0.000E+00 0.000E+00
BIGSUB   7        0   11.14660E+04    13.000     0.000    55.344     6.449     7.711     0.000     5.488     0.509     5.999     0.736     0.357     0.044     0.012     0.000     0.109     0.002     0.000     0.000 .00000E+00 0.000E+00 0.000E+00 0.000E+00
BIGSUB   8        0   11.34940E+04    13.000     0.000    56.082     7.395    10.642     0.000     2.669     0.251     2.937     1.261     0.260     0.031     0.028     0.000     0.078     0.017     0.000     0.000 .00000E+00 0.000E+00 0.000E+00 0.000E+00
BIGSUB   9        0   11.47420E+04     0.800     0.000    51.550     7.907     0.898     0.000     0.255     0.373     0.636     0.000     0.014     0.002     0.017     0.000     0.006     0.009     0.000     0.000 .00000E+00 0.000E+00 0.000E+00 0.000E+00
BIGSUB  10        0   11.13380E+04     0.800     0.000    52.001     8.097     3.112     0.000     0.007     0.192     0.204     0.000     0.001     0.000     0.000     0.000     0.000     0.005     0.000     0.000 .00000E+00 0.000E+00 0.000E+00 0.000E+00
BIGSUB  11        0   11.24060E+04   110.416    10.535    36.286    19.236    28.761     0.000    66.710     0.381    67.097    11.809     2.648     0.323     0.257     0.002     0.832     0.006     0.000     0.000 .00000E+00 0.000E+00 0.000E+00 0.000E+00
BIGSUB  12        0   11.19770E+04     6.000     0.000    44.945     8.606     5.826     0.000     0.849     0.498     1.349     0.012     0.021     0.002     0.038     0.000     0.006     0.002     0.000     0.000 .00000E+00 0.000E+00 0.000E+00 0.000E+00
BIGSUB  13        0   11.16410E+04   110.416    10.535    36.535    23.998    34.577     0.000    56.133     0.358    56.495     4.765     2.158     0.260     0.324     0.003     0.645     0.003     0.000     0.000 .00000E+00 0.000E+00 0.000E+00 0.000E+00
BIGSUB  14        0   11.52740E+04     6.000     0.000    45.466     8.470     4.102     0.000     1.612     0.644     2.260     0.009     0.030     0.004     0.108     0.000     0.010     0.004     0.000     0.000 .00000E+00 0.000E+00 0.000E+00 0.000E+00
BIGSUB  15        0   11.42200E+03   110.416    10.535    36.767    23.627    40.247     0.000    52.701     0.295    53.000     5.666     2.360     0.286     0.284     0.003     0.718     0.004     0.000     0.000 .00000E+00 0.000E+00 0.000E+00 0.000E+00
BIGSUB  16        0   11.13850E+04   110.416    10.535    36.967    17.540    25.945     0.000    68.725     0.410    69.138     4.698     2.601     0.313     0.589     0.005     0.931     0.004     0.000     0.000 .00000E+00 0.000E+00 0.000E+00 0.000E+00
BIGSUB  17        0   11.17180E+04     6.000     0.000    46.001     8.988     5.229     0.000     0.871     0.563     1.436     0.000     0.012     0.001     0.020     0.000     0.003     0.002     0.000     0.000 .00000E+00 0.000E+00 0.000E+00 0.000E+00
BIGSUB  18        0   11.26090E+04     6.000     0.000    45.828     8.424     2.724     0.000     2.054     0.587     2.643     0.021     0.048     0.006     0.153     0.000     0.017     0.003     0.000     0.000 .00000E+00 0.000E+00 0.000E+00 0.000E+00
BIGSUB  19        0   11.25380E+04     6.000     0.000    46.349    10.902     3.304     0.000     0.755     0.291     1.057     0.025     0.019     0.002     0.046     0.000     0.007     0.012     0.000     0.000 .00000E+00 0.000E+00 0.000E+00 0.000E+00
BIGSUB  20        0   11.19820E+04     6.000     0.000    46.511    11.608     2.548     0.000     0.602     0.283     0.898     0.043     0.014     0.002     0.097     0.000     0.006     0.014     0.000     0.000 .00000E+00 0.000E+00 0.000E+00 0.000E+00
BIGSUB   1        0   12.12360E+04    39.000     0.000    27.257     6.640    21.421     0.000     9.561     0.217     9.799     2.737     0.538     0.064     0.157     0.001     0.193     0.021     0.000     0.000 .00000E+00 0.000E+00 0.000E+00 0.000E+00
BIGSUB   2        0   12.37400E+03    39.000     0.000    27.379     6.403    19.742     0.000    10.634     0.221    10.987     8.071     0.479     0.056     0.190     0.000     0.165     0.132     0.000     0.000 .00000E+00 0.000E+00 0.000E+00 0.000E+00
BIGSUB   3        0   12.14590E+04    39.000     0.000    27.255     5.805    15.518     0.000    14.847     0.280    15.149     6.280     0.602     0.072     0.269     0.000     0.243     0.021     0.000     0.000 .00000E+00 0.000E+00 0.000E+00 0.000E+00
BIGSUB   4        0   12.91800E+03    39.000     0.000    27.276     6.316    18.522     0.000    11.575     0.208    11.803     3.608     0.627     0.075     0.204     0.001     0.234     0.020     0.000     0.000 .00000E+00 0.000E+00 0.000E+00 0.000E+00
BIGSUB   5        0   12.37770E+04    39.000     0.000    27.473     6.105    18.884     0.000    11.865     0.404    12.284     1.959     0.807     0.097     0.156     0.001     0.251     0.015     0.000     0.000 .00000E+00 0.000E+00 0.000E+00 0.000E+00
BIGSUB   6        0   12.18250E+04    39.000     0.000    27.709     5.402    13.923     0.000    15.580     0.541    16.133     4.559     0.952     0.115     0.204     0.001     0.300     0.011     0.000     0.000 .00000E+00 0.000E+00 0.000E+00 0.000E+00
BIGSUB   7        0   12.14660E+04    39.000     0.000    27.731     5.309    14.291     0.000    15.646     0.499    16.147     2.243     1.037     0.127     0.035     0.001     0.318     0.002     0.000     0.000 .00000E+00 0.000E+00 0.000E+00 0.000E+00
BIGSUB   8        0   12.34940E+04    39.000     0.000    28.187     6.799    22.427     0.000     9.197     0.242     9.462     3.941     0.898     0.107     0.093     0.000     0.263     0.023     0.000     0.000 .00000E+00 0.000E+00 0.000E+00 0.000E+00
BIGSUB   9        0   12.47420E+04    15.300     0.100    28.129     3.778     1.992     0.000     0.014     0.335     0.354     0.000     0.000     0.000     0.029     0.000     0.000     0.004     0.000     0.000 .00000E+00 0.000E+00 0.000E+00 0.000E+00
BIGSUB  10        0   12.13380E+04    15.300     0.100    28.431     5.053     2.890     0.000     0.035     0.174     0.213     0.000     0.000     0.000     0.021     0.000     0.000     0.004     0.000     0.000 .00000E+00 0.000E+00 0.000E+00 0.000E+00
BIGSUB  11        0   12.24060E+04    22.312    16.670    21.931    11.770    28.376     0.000    10.770     0.487    11.263     2.144     0.374     0.045     0.064     0.000     0.117     0.006     0.000     0.000 .00000E+00 0.000E+00 0.000E+00 0.000E+00
BIGSUB  12        0   12.19770E+04    20.900     1.500    24.144     4.284     4.442     0.000     0.000     0.457     0.459     0.000     0.000     0.000     0.000     0.000     0.000     0.002     0.000     0.000 .00000E+00 0.000E+00 0.000E+00 0.000E+00
BIGSUB  13        0   12.16410E+04    22.312    16.667    22.113    14.178    32.431     0.000    10.170     0.464    10.638     0.906     0.387     0.046     0.098     0.001     0.114     0.004     0.000     0.000 .00000E+00 0.000E+00 0.000E+00 0.000E+00
BIGSUB  14        0   12.52740E+04    20.900     1.500    24.488     4.421     2.581     0.000     0.000     0.593     0.596     0.000     0.000     0.000     0.000     0.000     0.000     0.004     0.000     0.000 .00000E+00 0.000E+00 0.000E+00 0.000E+00
BIGSUB  15        0   12.42200E+03    22.312    16.664    22.284    13.573    38.919     0.000     9.664     0.380    10.049     1.467     0.523     0.063     0.069     0.001     0.158     0.005     0.000     0.000 .00000E+00 0.000E+00 0.000E+00 0.000E+00
BIGSUB  16        0   12.13850E+04    22.312    16.662    22.431    10.053    27.168     0.000    10.783     0.520    11.307     0.854     0.394     0.047     0.077     0.001     0.139     0.004     0.000     0.000 .00000E+00 0.000E+00 0.000E+00 0.000E+00
BIGSUB  17        0   12.17180E+04    20.900     1.500    24.842     4.738     3.391     0.000     0.000     0.517     0.518     0.000     0.000     0.000     0.000     0.000     0.000     0.001     0.000     0.000 .00000E+00 0.000E+00 0.000E+00 0.000E+00
BIGSUB  18        0   12.26090E+04    20.900     1.500    24.728     4.216     1.409     0.000     0.000     0.542     0.544     0.000     0.000     0.000     0.000     0.000     0.000     0.003     0.000     0.000 .00000E+00 0.000E+00 0.000E+00 0.000E+00
BIGSUB  19        0   12.25380E+04    20.900     1.500    25.073     5.186     1.018     0.000     0.000     0.268     0.274     0.000     0.000     0.000     0.000     0.000     0.000     0.007     0.000     0.000 .00000E+00 0.000E+00 0.000E+00 0.000E+00
BIGSUB  20        0   12.19820E+04    20.900     1.500    25.180     4.642     0.790     0.000     0.004     0.260     0.272     0.000     0.000     0.000     0.017     0.000     0.000     0.008     0.000     0.000 .00000E+00 0.000E+00 0.000E+00 0.000E+00
BIGSUB   1        0 1990.12360E+04   289.400    61.825  1311.747   171.007    21.421     0.000    99.590     3.805   103.659    27.150    10.782     1.265     1.393     0.010     3.405     0.264     0.004     0.000 .00000E+00 0.000E+00 0.000E+00 0.000E+00
BIGSUB   2        0 1990.37400E+03   289.400    61.823  1312.892   162.552    19.742     0.000   107.866     3.830   113.009    78.321    12.561     1.453     1.677     0.006     3.852     1.313     0.016     0.000 .00000E+00 0.000E+00 0.000E+00 0.000E+00
BIGSUB   3        0 1990.14590E+04   289.400    61.825  1311.723   141.826    15.518     0.000   133.909     4.717   138.885    65.771    11.002     1.319     1.975     0.007     4.037     0.258     0.002     0.000 .00000E+00 0.000E+00 0.000E+00 0.000E+00
BIGSUB   4        0 1990.91800E+03   289.400    61.825  1311.922   159.269    18.522     0.000   112.480     3.566   116.298    36.087    11.647     1.366     1.685     0.010     3.828     0.252     0.003     0.000 .00000E+00 0.000E+00 0.000E+00 0.000E+00
BIGSUB   5        0 1990.37770E+04   289.400    61.820  1313.779   148.410    18.884     0.000   120.831     6.912   127.936    22.975    13.992     1.661     2.157     0.011     4.113     0.193     0.003     0.000 .00000E+00 0.000E+00 0.000E+00 0.000E+00
BIGSUB   6        0 1990.18250E+04   289.400    61.815  1315.986   122.786    13.923     0.000   145.903     9.047   155.091    43.800    15.080     1.810     2.687     0.011     4.596     0.141     0.004     0.000 .00000E+00 0.000E+00 0.000E+00 0.000E+00
BIGSUB   7        0 1990.14660E+04   289.400    61.814  1316.192   125.786    14.291     0.000   142.231     8.289   150.545    22.636    13.434     1.649     0.326     0.011     4.081     0.026     0.000     0.000 .00000E+00 0.000E+00 0.000E+00 0.000E+00
BIGSUB   8        0 1990.34940E+04   289.400    61.804  1320.412   165.364    22.427     0.000   103.676     4.270   108.234    33.457    14.334     1.662     1.472     0.009     3.829     0.288     0.004     0.000 .00000E+00 0.000E+00 0.000E+00 0.000E+00
BIGSUB   9        0 1990.47420E+04   222.400    50.186  1239.538   113.644     1.992     0.000   101.538     5.415   107.084    18.819    13.476     1.621     2.047     0.012     4.770     0.131     0.003     0.000 .00000E+00 0.000E+00 0.000E+00 0.000E+00
BIGSUB  10        0 1990.13380E+04   222.400    50.176  1242.149   119.625     2.890     0.000   100.285     2.798   103.147    52.476    20.251     2.448     1.793     0.009     6.026     0.065     0.002     0.000 .00000E+00 0.000E+00 0.000E+00 0.000E+00
BIGSUB  11        0 1990.24060E+04   329.184    90.047  1078.785   128.457    28.376     0.000   184.903     4.855   189.807    35.161     9.497     1.153     1.183     0.008     2.919     0.048     0.000     0.000 .00000E+00 0.000E+00 0.000E+00 0.000E+00
BIGSUB  12        0 1990.19770E+04   292.300   105.788  1132.693   128.160     4.442     0.000   158.913     8.107   167.053    16.812    15.249     1.821     2.280     0.015     3.995     0.033     0.001     0.000 .00000E+00 0.000E+00 0.000E+00 0.000E+00
BIGSUB  13        0 1990.16410E+04   329.184    90.042  1080.497   153.358    32.431     0.000   157.541     4.566   162.140    17.906     8.792     1.049     1.814     0.011     2.552     0.033     0.001     0.000 .00000E+00 0.000E+00 0.000E+00 0.000E+00
BIGSUB  14        0 1990.52740E+04   292.300   105.763  1135.523   124.989     2.581     0.000   157.770    10.725   168.556    17.433    12.113     1.444     2.361     0.014     3.627     0.061     0.001     0.000 .00000E+00 0.000E+00 0.000E+00 0.000E+00
BIGSUB  15        0 1990.42200E+03   329.184    90.037  1082.085   157.604    38.919     0.000   149.290     3.803   153.130    18.850     8.432     1.018     1.614     0.011     2.521     0.036     0.001     0.000 .00000E+00 0.000E+00 0.000E+00 0.000E+00
BIGSUB  16        0 1990.13850E+04   329.184    90.032  1083.443   116.473    27.168     0.000   194.284     5.235   199.550    15.326     9.135     1.090     3.708     0.016     3.169     0.031     0.001     0.000 .00000E+00 0.000E+00 0.000E+00 0.000E+00
BIGSUB  17        0 1990.17180E+04   292.300   105.737  1138.596   127.251     3.391     0.000   155.956     9.385   165.362    10.384    12.324     1.473     1.966     0.019     3.557     0.021     0.001     0.000 .00000E+00 0.000E+00 0.000E+00 0.000E+00
BIGSUB  18        0 1990.26090E+04   292.300   105.745  1137.606   121.968     1.409     0.000   160.889     9.712   170.642    10.135     9.369     1.119     2.663     0.017     3.316     0.041     0.001     0.000 .00000E+00 0.000E+00 0.000E+00 0.000E+00
BIGSUB  19        0 1990.25380E+04   292.300   105.720  1140.582   162.676     1.018     0.000   135.030     4.944   140.192    11.418    10.780     1.260     1.763     0.016     3.216     0.218     0.003     0.000 .00000E+00 0.000E+00 0.000E+00 0.000E+00
BIGSUB  20        0 1990.19820E+04   292.300   105.712  1141.498   175.929     0.790     0.000   125.593     4.913   130.768    13.470    10.687     1.242     2.237     0.015     3.186     0.262     0.004     0.000 .00000E+00 0.000E+00 0.000E+00 0.000E+00
BIGSUB   1        0    1.12360E+04    19.100    26.211    17.848     7.040    36.481     0.000     7.283     0.225     7.529     1.134     0.510     0.060     0.105     0.001     0.177     0.020     0.000     0.000 .00000E+00 0.000E+00 0.000E+00 0.000E+00
BIGSUB   2        0    1.37400E+03    19.100    26.207    17.919     6.726    33.929     0.000     8.318     0.234     8.653     3.215     0.710     0.083     0.133     0.001     0.243     0.100     0.002     0.000 .00000E+00 0.000E+00 0.000E+00 0.000E+00
BIGSUB   3        0    1.14590E+04    19.100    26.211    17.846     5.907    27.840     0.000    11.004     0.288    11.313     2.642     0.747     0.089     0.165     0.001     0.285     0.020     0.000     0.000 .00000E+00 0.000E+00 0.000E+00 0.000E+00
BIGSUB   4        0    1.91800E+03    19.100    26.210    17.859     6.600    32.530     0.000     8.788     0.217     9.025     1.454     0.589     0.069     0.132     0.001     0.210     0.020     0.000     0.000 .00000E+00 0.000E+00 0.000E+00 0.000E+00
BIGSUB   5        0    1.37770E+04    19.100    26.204    17.975     6.483    31.536     0.000     9.804     0.410    10.229     1.361     0.895     0.107     0.129     0.001     0.269     0.015     0.000     0.000 .00000E+00 0.000E+00 0.000E+00 0.000E+00
BIGSUB   6        0    1.18250E+04    19.100    26.198    18.114     5.726    24.007     0.000    12.815     0.546    13.372     2.465     1.194     0.143     0.164     0.001     0.363     0.010     0.000     0.000 .00000E+00 0.000E+00 0.000E+00 0.000E+00
BIGSUB   7        0    1.14660E+04    19.100    26.197    18.127     6.682    23.625     0.000    12.758     0.501    13.261     1.511     1.034     0.127     0.030     0.001     0.313     0.002     0.000     0.000 .00000E+00 0.000E+00 0.000E+00 0.000E+00
BIGSUB   8        0    1.34940E+04    19.100    26.184    18.396     7.779    35.686     0.000     8.228     0.251     8.501     2.802     1.224     0.144     0.096     0.001     0.338     0.023     0.000     0.000 .00000E+00 0.000E+00 0.000E+00 0.000E+00
BIGSUB   9        0    1.47420E+04    34.700    18.450    19.588     3.532    11.987     0.000     2.933     0.302     3.240     0.424     0.175     0.021     0.243     0.000     0.072     0.004     0.000     0.000 .00000E+00 0.000E+00 0.000E+00 0.000E+00
BIGSUB  10        0    1.13380E+04    34.700    18.450    19.780     3.843    14.176     0.000     3.189     0.159     3.352     1.268     0.378     0.046     0.069     0.000     0.113     0.004     0.000     0.000 .00000E+00 0.000E+00 0.000E+00 0.000E+00
BIGSUB  11        0    1.24060E+04    29.257     2.915    19.324     4.722    25.561     0.000     0.923     0.460     1.388     0.145     0.057     0.007     0.032     0.000     0.017     0.006     0.000     0.000 .00000E+00 0.000E+00 0.000E+00 0.000E+00
BIGSUB  12        0    1.19770E+04    38.200     3.825    14.975     3.424     4.810     0.000     0.016     0.396     0.414     0.000     0.000     0.000     0.005     0.000     0.000     0.002     0.000     0.000 .00000E+00 0.000E+00 0.000E+00 0.000E+00
BIGSUB  13        0    1.16410E+04    29.257     2.915    19.471     5.511    28.826     0.000     0.921     0.438     1.362     0.076     0.053     0.006     0.072     0.000     0.014     0.003     0.000     0.000 .00000E+00 0.000E+00 0.000E+00 0.000E+00
BIGSUB  14        0    1.52740E+04    38.200     3.825    15.072     2.961     3.410     0.000     0.020     0.513     0.537     0.000     0.000     0.000     0.008     0.000     0.000     0.003     0.000     0.000 .00000E+00 0.000E+00 0.000E+00 0.000E+00
BIGSUB  15        0    1.42200E+03    29.257     2.915    19.608     5.294    35.532     0.000     0.934     0.354     1.292     0.109     0.059     0.007     0.043     0.000     0.017     0.004     0.000     0.000 .00000E+00 0.000E+00 0.000E+00 0.000E+00
BIGSUB  16        0    1.13850E+04    29.257     2.915    19.726     3.827    25.248     0.000     0.918     0.489     1.411     0.062     0.041     0.005     0.056     0.000     0.014     0.004     0.000     0.000 .00000E+00 0.000E+00 0.000E+00 0.000E+00
BIGSUB  17        0    1.17180E+04    38.200     3.825    15.271     2.955     4.248     0.000     0.007     0.447     0.456     0.000     0.000     0.000     0.001     0.000     0.000     0.001     0.000     0.000 .00000E+00 0.000E+00 0.000E+00 0.000E+00
BIGSUB  18        0    1.26090E+04    38.200     3.825    15.207     2.867     2.327     0.000     0.023     0.469     0.494     0.000     0.000     0.000     0.011     0.000     0.000     0.002     0.000     0.000 .00000E+00 0.000E+00 0.000E+00 0.000E+00
BIGSUB  19        0    1.25380E+04    38.200     3.825    15.401     2.759     2.066     0.000     0.005     0.232     0.241     0.000     0.000     0.000     0.005     0.000     0.000     0.004     0.000     0.000 .00000E+00 0.000E+00 0.000E+00 0.000E+00
BIGSUB  20        0    1.19820E+04    38.200     3.825    15.461     2.577     1.745     0.000     0.232     0.229     0.466     0.026     0.011     0.001     0.306     0.000     0.004     0.005     0.000     0.000 .00000E+00 0.000E+00 0.000E+00 0.000E+00
BIGSUB   1        0    2.12360E+04    41.900    22.300    31.255    15.268    47.099     0.000    15.169     0.239    15.425     3.354     1.590     0.187     0.143     0.001     0.516     0.017     0.000     0.000 .00000E+00 0.000E+00 0.000E+00 0.000E+00
BIGSUB   2        0    2.37400E+03    41.900    22.300    31.343    14.452    43.621     0.000    16.767     0.255    17.100     9.519     1.996     0.234     0.166     0.001     0.649     0.078     0.002     0.000 .00000E+00 0.000E+00 0.000E+00 0.000E+00
BIGSUB   3        0    2.14590E+04    41.900    22.300    31.253    11.990    36.155     0.000    20.518     0.301    20.836     7.299     1.734     0.209     0.165     0.001     0.652     0.017     0.000     0.000 .00000E+00 0.000E+00 0.000E+00 0.000E+00
BIGSUB   4        0    2.91800E+03    41.900    22.300    31.268    13.955    42.316     0.000    17.420     0.233    17.669     4.288     1.692     0.200     0.162     0.001     0.572     0.016     0.000     0.000 .00000E+00 0.000E+00 0.000E+00 0.000E+00
BIGSUB   5        0    2.37770E+04    41.900    22.300    31.412    12.873    39.195     0.000    18.808     0.422    19.242     4.024     2.183     0.260     0.203     0.002     0.653     0.012     0.000     0.000 .00000E+00 0.000E+00 0.000E+00 0.000E+00
BIGSUB   6        0    2.18250E+04    41.900    22.300    31.584    10.457    28.744     0.000    22.909     0.556    23.473     6.916     2.494     0.301     0.238     0.002     0.766     0.007     0.000     0.000 .00000E+00 0.000E+00 0.000E+00 0.000E+00
BIGSUB   7        0    2.14660E+04    41.900    22.300    31.601    13.871    25.592     0.000    21.977     0.507    22.485     3.873     2.025     0.248     0.049     0.002     0.614     0.002     0.000     0.000 .00000E+00 0.000E+00 0.000E+00 0.000E+00
BIGSUB   8        0    2.34940E+04    41.900    22.300    31.731    16.922    42.781     0.000    16.806     0.270    17.094     4.551     2.184     0.256     0.193     0.001     0.605     0.018     0.000     0.000 .00000E+00 0.000E+00 0.000E+00 0.000E+00
BIGSUB   9        0    2.47420E+04    36.500    31.497    24.351    11.707    25.958     0.000    33.474     0.380    33.858     6.566     3.961     0.472     0.271     0.004     1.399     0.004     0.000     0.000 .00000E+00 0.000E+00 0.000E+00 0.000E+00
BIGSUB  10        0    2.13380E+04    36.500    31.484    24.516    13.359    26.833     0.000    35.521     0.210    35.734    19.639     6.962     0.837     0.257     0.003     2.048     0.004     0.000     0.000 .00000E+00 0.000E+00 0.000E+00 0.000E+00
BIGSUB  11        0    2.24060E+04    46.448    51.743    23.316    10.844    32.556     0.000    53.017     0.438    53.459    10.231     3.668     0.440     0.303     0.003     1.089     0.004     0.000     0.000 .00000E+00 0.000E+00 0.000E+00 0.000E+00
BIGSUB  12        0    2.19770E+04    56.500    68.625    17.346     6.402    31.080     0.000    51.667     0.371    52.039     6.911     4.725     0.567     0.359     0.005     1.251     0.002     0.000     0.000 .00000E+00 0.000E+00 0.000E+00 0.000E+00
BIGSUB  13        0    2.16410E+04    46.448    51.740    23.443    12.531    34.357     0.000    52.713     0.423    53.139     5.652     3.506     0.408     0.518     0.005     0.959     0.003     0.000     0.000 .00000E+00 0.000E+00 0.000E+00 0.000E+00
BIGSUB  14        0    2.52740E+04    56.500    68.625    17.503     6.115    27.988     0.000    48.020     0.483    48.506    10.989     5.033     0.603     0.357     0.004     1.505     0.003     0.000     0.000 .00000E+00 0.000E+00 0.000E+00 0.000E+00
BIGSUB  15        0    2.42200E+03    46.448    51.736    23.561    11.899    41.461     0.000    53.693     0.348    54.044     6.528     3.540     0.424     0.411     0.005     1.031     0.003     0.000     0.000 .00000E+00 0.000E+00 0.000E+00 0.000E+00
BIGSUB  16        0    2.13850E+04    46.448    51.733    23.662     9.084    33.739     0.000    53.319     0.465    53.787     4.291     2.684     0.316     0.423     0.005     0.895     0.003     0.000     0.000 .00000E+00 0.000E+00 0.000E+00 0.000E+00
BIGSUB  17        0    2.17180E+04    56.500    68.625    17.664     6.901    30.606     0.000    48.371     0.420    48.792     7.107     5.280     0.634     0.271     0.005     1.544     0.001     0.000     0.000 .00000E+00 0.000E+00 0.000E+00 0.000E+00
BIGSUB  18        0    2.26090E+04    56.500    68.625    17.612     5.667    25.266     0.000    50.316     0.443    50.761     6.192     3.771     0.452     0.433     0.005     1.344     0.002     0.000     0.000 .00000E+00 0.000E+00 0.000E+00 0.000E+00
BIGSUB  19        0    2.25380E+04    56.500    68.625    17.769     5.907    42.848     0.000    46.496     0.214    46.718     6.047     4.703     0.546     0.326     0.005     1.429     0.008     0.000     0.000 .00000E+00 0.000E+00 0.000E+00 0.000E+00
BIGSUB  20        0    2.19820E+04    56.500    68.625    17.817     5.926    48.259     0.000    41.950     0.210    42.169     7.669     4.415     0.508     0.620     0.005     1.385     0.009     0.000     0.000 .00000E+00 0.000E+00 0.000E+00 0.000E+00
BIGSUB   1        0    3.12360E+04    87.200    10.510    58.568    32.761    62.248     0.000    37.682     0.411    38.152     8.487     3.972     0.469     0.232     0.003     1.231     0.059     0.001     0.000 .00000E+00 0.000E+00 0.000E+00 0.000E+00
BIGSUB   2        0    3.37400E+03    87.200    10.509    58.665    31.451    57.195     0.000    39.934     0.446    40.833    21.073     4.356     0.511     0.258     0.002     1.350     0.453     0.007     0.000 .00000E+00 0.000E+00 0.000E+00 0.000E+00
BIGSUB   3        0    3.14590E+04    87.200    10.510    58.566    27.584    47.661     0.000    46.384     0.499    46.937    17.513     3.217     0.389     0.283     0.002     1.190     0.055     0.000     0.000 .00000E+00 0.000E+00 0.000E+00 0.000E+00
BIGSUB   4        0    3.91800E+03    87.200    10.510    58.583    30.684    56.121     0.000    41.085     0.401    41.542    10.185     3.987     0.471     0.262     0.003     1.288     0.056     0.001     0.000 .00000E+00 0.000E+00 0.000E+00 0.000E+00
BIGSUB   5        0    3.37770E+04    87.200    10.509    58.740    29.393    49.014     0.000    46.578     0.707    47.323     8.897     4.768     0.569     0.366     0.004     1.420     0.037     0.001     0.000 .00000E+00 0.000E+00 0.000E+00 0.000E+00
BIGSUB   6        0    3.18250E+04    87.200    10.507    58.926    26.485    32.770     0.000    55.565     0.911    56.489    13.628     4.830     0.583     0.462     0.003     1.497     0.013     0.000     0.000 .00000E+00 0.000E+00 0.000E+00 0.000E+00
BIGSUB   7        0    3.14660E+04    87.200    10.507    58.944    34.227    21.884     0.000    56.326     0.826    57.154     7.525     4.374     0.536     0.129     0.004     1.328     0.002     0.000     0.000 .00000E+00 0.000E+00 0.000E+00 0.000E+00
BIGSUB   8        0    3.34940E+04    87.200    10.504    59.303    36.943    51.062     0.000    40.179     0.472    40.706    19.553     6.290     0.739     0.352     0.003     1.746     0.055     0.001     0.000 .00000E+00 0.000E+00 0.000E+00 0.000E+00
BIGSUB   9        0    3.47420E+04    77.000    30.270    51.346    26.435    41.374     0.000    36.356     0.616    36.995     5.141     3.288     0.394     0.326     0.003     1.216     0.022     0.001     0.000 .00000E+00 0.000E+00 0.000E+00 0.000E+00
[...]
BIGSUB   3        0    5.14590E+04    49.300     0.000   122.387    36.166    29.195     0.000    17.450     0.554    18.039    10.893     0.880     0.106     0.393     0.001     0.339     0.034     0.000     0.000 .00000E+00 0.000E+00 0.000E+00 0.000E+00
BIGSUB   4        0    5.91800E+03    49.300     0.000   122.389    39.404    34.320     0.000    14.834     0.411    15.279     6.035     1.061     0.124     0.342     0.001     0.349     0.034     0.000     0.000 .00000E+00 0.000E+00 0.000E+00 0.000E+00
BIGSUB   5        0    5.37770E+04    49.300     0.000   122.415    37.146    27.722     0.000    15.581     0.839    16.444     3.706     1.203     0.142     0.481     0.001     0.353     0.024     0.000     0.000 .00000E+00 0.000E+00 0.000E+00 0.000E+00
BIGSUB   6        0    5.18250E+04    49.300     0.000   122.444    32.539    15.484     0.000    19.082     1.137    20.231     6.688     1.265     0.152     0.589     0.001     0.390     0.012     0.000     0.000 .00000E+00 0.000E+00 0.000E+00 0.000E+00
BIGSUB   7        0    5.14660E+04    49.300     0.000   122.446    29.484    17.083     0.000    18.550     1.057    19.609     3.140     1.177     0.144     0.045     0.001     0.359     0.002     0.000     0.000 .00000E+00 0.000E+00 0.000E+00 0.000E+00
BIGSUB   8        0    5.34940E+04    49.300     0.000   122.499    39.913    33.910     0.000    12.406     0.581    13.027     3.344     0.804     0.093     0.225     0.001     0.211     0.040     0.000     0.000 .00000E+00 0.000E+00 0.000E+00 0.000E+00
BIGSUB   9        0    5.47420E+04    73.700     0.000   113.177    40.540    26.732     0.000    33.599     0.862    34.497     5.667     2.132     0.252     0.447     0.002     0.731     0.036     0.000     0.000 .00000E+00 0.000E+00 0.000E+00 0.000E+00
BIGSUB  10        0    5.13380E+04    73.700     0.000   113.206    41.322    20.234     0.000    33.288     0.458    33.755    17.124     2.462     0.292     0.389     0.002     0.711     0.009     0.000     0.000 .00000E+00 0.000E+00 0.000E+00 0.000E+00
BIGSUB  11        0    5.24060E+04    40.013     0.000   113.839    32.891    16.700     0.000    23.695     0.734    24.435     3.149     0.657     0.078     0.200     0.001     0.194     0.006     0.000     0.000 .00000E+00 0.000E+00 0.000E+00 0.000E+00
BIGSUB  12        0    5.19770E+04    73.300     0.000   103.456    34.623    23.815     0.000    42.975     0.792    43.770     6.437     2.183     0.262     0.613     0.002     0.587     0.003     0.000     0.000 .00000E+00 0.000E+00 0.000E+00 0.000E+00
BIGSUB  13        0    5.16410E+04    40.013     0.000   113.867    36.166    22.973     0.000    20.566     0.721    21.290     1.856     0.895     0.103     0.336     0.001     0.247     0.004     0.000     0.000 .00000E+00 0.000E+00 0.000E+00 0.000E+00
BIGSUB  14        0    5.52740E+04    73.300     0.000   103.489    32.962    23.276     0.000    42.141     1.056    43.203     8.477     1.792     0.216     0.506     0.002     0.580     0.006     0.000     0.000 .00000E+00 0.000E+00 0.000E+00 0.000E+00
BIGSUB  15        0    5.42200E+03    40.013     0.000   113.892    36.811    31.725     0.000    17.887     0.587    18.479     1.835     0.643     0.076     0.253     0.001     0.186     0.005     0.000     0.000 .00000E+00 0.000E+00 0.000E+00 0.000E+00
BIGSUB  16        0    5.13850E+04    40.013     0.000   113.912    31.366    20.322     0.000    24.156     0.776    24.936     1.393     0.768     0.089     0.409     0.002     0.252     0.004     0.000     0.000 .00000E+00 0.000E+00 0.000E+00 0.000E+00
BIGSUB  17        0    5.17180E+04    73.300     0.000   103.519    31.925    24.901     0.000    42.535     0.909    43.446     5.537     2.483     0.300     0.429     0.003     0.746     0.002     0.000     0.000 .00000E+00 0.000E+00 0.000E+00 0.000E+00
BIGSUB  18        0    5.26090E+04    73.300     0.000   103.510    33.087    22.552     0.000    42.487     0.952    43.442     4.609     1.870     0.225     0.524     0.003     0.683     0.004     0.000     0.000 .00000E+00 0.000E+00 0.000E+00 0.000E+00
BIGSUB  19        0    5.25380E+04    73.300     0.000   103.537    40.140    50.176     0.000    35.952     0.475    36.475     5.683     2.441     0.283     0.379     0.003     0.729     0.048     0.001     0.000 .00000E+00 0.000E+00 0.000E+00 0.000E+00
BIGSUB  20        0    5.19820E+04    73.300     0.000   103.544    42.392    59.710     0.000    33.012     0.485    33.556     6.767     2.495     0.287     0.287     0.003     0.726     0.058     0.001     0.000 .00000E+00 0.000E+00 0.000E+00 0.000E+00
BIGSUB   1        0    6.12360E+04    17.200     0.000   181.756    42.681     9.510     0.000     4.251     0.430     4.712     0.970     0.186     0.022     0.083     0.000     0.063     0.031     0.000     0.000 .00000E+00 0.000E+00 0.000E+00 0.000E+00
BIGSUB   2        0    6.37400E+03    17.200     0.000   181.735    39.516     7.704     0.000     4.755     0.448     5.347     2.805     0.168     0.020     0.105     0.000     0.056     0.143     0.001     0.000 .00000E+00 0.000E+00 0.000E+00 0.000E+00
BIGSUB   3        0    6.14590E+04    17.200     0.000   181.756    25.834    13.954     0.000     6.731     0.556     7.317     2.279     0.201     0.024     0.138     0.000     0.081     0.030     0.000     0.000 .00000E+00 0.000E+00 0.000E+00 0.000E+00
BIGSUB   4        0    6.91800E+03    17.200     0.000   181.753    38.653     7.706     0.000     5.081     0.409     5.520     1.251     0.205     0.024     0.102     0.000     0.073     0.030     0.000     0.000 .00000E+00 0.000E+00 0.000E+00 0.000E+00
BIGSUB   5        0    6.37770E+04    17.200     0.000   181.719    35.054     4.906     0.000     5.127     0.848     5.996     0.668     0.240     0.029     0.137     0.000     0.073     0.021     0.000     0.000 .00000E+00 0.000E+00 0.000E+00 0.000E+00
BIGSUB   6        0    6.18250E+04    17.200     0.000   181.678    26.275     0.000     0.000     6.631     1.156     7.799     1.232     0.270     0.032     0.176     0.000     0.084     0.013     0.000     0.000 .00000E+00 0.000E+00 0.000E+00 0.000E+00
BIGSUB   7        0    6.14660E+04    17.200     0.000   181.674    23.831     3.397     0.000     7.443     1.081     8.526     0.825     0.349     0.043     0.019     0.000     0.106     0.002     0.000     0.000 .00000E+00 0.000E+00 0.000E+00 0.000E+00
BIGSUB   8        0    6.34940E+04    17.200     0.000   181.588    43.247     4.121     0.000     3.485     0.601     4.121     0.609     0.147     0.017     0.051     0.000     0.041     0.035     0.000     0.000 .00000E+00 0.000E+00 0.000E+00 0.000E+00
BIGSUB   9        0    6.47420E+04    24.900     0.000   163.206    34.633     9.783     0.000     6.028     0.955     7.013     0.686     0.231     0.028     0.391     0.000     0.088     0.029     0.000     0.000 .00000E+00 0.000E+00 0.000E+00 0.000E+00
BIGSUB  10        0    6.13380E+04    24.900     0.000   163.152    33.820     6.451     0.000     4.275     0.496     4.781     1.668     0.204     0.024     0.169     0.000     0.060     0.010     0.000     0.000 .00000E+00 0.000E+00 0.000E+00 0.000E+00
BIGSUB  11        0    6.24060E+04     7.889     0.000   165.098    17.972     3.851     0.000     2.666     0.680     3.351     0.487     0.060     0.007     0.142     0.000     0.019     0.005     0.000     0.000 .00000E+00 0.000E+00 0.000E+00 0.000E+00
BIGSUB  12        0    6.19770E+04    12.000     0.000   149.452    29.274     1.341     0.000     7.534     0.828     8.364     0.469     0.261     0.031     0.289     0.000     0.071     0.003     0.000     0.000 .00000E+00 0.000E+00 0.000E+00 0.000E+00
BIGSUB  13        0    6.16410E+04     7.889     0.000   165.052    20.711     8.611     0.000     1.440     0.670     2.113     0.130     0.051     0.006     0.274     0.000     0.014     0.004     0.000     0.000 .00000E+00 0.000E+00 0.000E+00 0.000E+00
BIGSUB  14        0    6.52740E+04    12.000     0.000   149.378    25.660     4.170     0.000     8.571     1.087     9.664     0.908     0.247     0.030     0.261     0.000     0.082     0.006     0.000     0.000 .00000E+00 0.000E+00 0.000E+00 0.000E+00
BIGSUB  15        0    6.42200E+03     7.889     0.000   165.007    20.564    17.265     0.000     1.700     0.548     2.252     0.189     0.059     0.007     0.153     0.000     0.018     0.004     0.000     0.000 .00000E+00 0.000E+00 0.000E+00 0.000E+00
BIGSUB  16        0    6.13850E+04     7.889     0.000   164.968    26.024     0.000     0.000     2.084     0.718     2.805     0.089     0.039     0.005     0.097     0.000     0.013     0.004     0.000     0.000 .00000E+00 0.000E+00 0.000E+00 0.000E+00
BIGSUB  17        0    6.17180E+04    12.000     0.000   149.297    23.891     7.637     0.000     8.243     0.936     9.180     0.576     0.347     0.042     0.190     0.000     0.105     0.002     0.000     0.000 .00000E+00 0.000E+00 0.000E+00 0.000E+00
BIGSUB  18        0    6.26090E+04    12.000     0.000   149.324    25.930     2.943     0.000     8.924     0.981     9.909     0.546     0.284     0.034     0.298     0.000     0.104     0.004     0.000     0.000 .00000E+00 0.000E+00 0.000E+00 0.000E+00
BIGSUB  19        0    6.25380E+04    12.000     0.000   149.242    30.112    28.328     0.000     4.970     0.481     5.484     0.548     0.231     0.027     0.153     0.000     0.074     0.034     0.000     0.000 .00000E+00 0.000E+00 0.000E+00 0.000E+00
BIGSUB  20        0    6.19820E+04    12.000     0.000   149.216    31.498    37.165     0.000     3.919     0.490     4.449     0.699     0.206     0.024     0.089     0.000     0.064     0.041     0.000     0.000 .00000E+00 0.000E+00 0.000E+00 0.000E+00
BIGSUB   1        0    7.12360E+04     0.000     0.000   214.416     9.510     0.000     0.000     0.000     0.394     0.411     0.000     0.000     0.000     0.000     0.000     0.000     0.017     0.000     0.000 .00000E+00 0.000E+00 0.000E+00 0.000E+00
BIGSUB   2        0    7.37400E+03     0.000     0.000   214.419     7.704     0.000     0.000     0.000     0.411     0.443     0.000     0.000     0.000     0.000     0.000     0.000     0.031     0.000     0.000 .00000E+00 0.000E+00 0.000E+00 0.000E+00
BIGSUB   3        0    7.14590E+04     0.000     0.000   214.416     5.314     8.641     0.000     0.000     0.510     0.528     0.000     0.000     0.000     0.000     0.000     0.000     0.018     0.000     0.000 .00000E+00 0.000E+00 0.000E+00 0.000E+00
BIGSUB   4        0    7.91800E+03     0.000     0.000   214.416     7.706     0.000     0.000     0.000     0.375     0.392     0.000     0.000     0.000     0.000     0.000     0.000     0.016     0.000     0.000 .00000E+00 0.000E+00 0.000E+00 0.000E+00
BIGSUB   5        0    7.37770E+04     0.000     0.000   214.421     4.906     0.000     0.000     0.000     0.778     0.791     0.000     0.000     0.000     0.000     0.000     0.000     0.013     0.000     0.000 .00000E+00 0.000E+00 0.000E+00 0.000E+00
BIGSUB   6        0    7.18250E+04     0.000     0.000   214.425     0.000     0.000     0.000     0.000     1.060     1.072     0.000     0.000     0.000     0.000     0.000     0.000     0.011     0.000     0.000 .00000E+00 0.000E+00 0.000E+00 0.000E+00
BIGSUB   7        0    7.14660E+04     0.000     0.000   214.425     3.397     0.000     0.000     0.000     0.992     0.994     0.000     0.000     0.000     0.000     0.000     0.000     0.002     0.000     0.000 .00000E+00 0.000E+00 0.000E+00 0.000E+00
BIGSUB   8        0    7.34940E+04     0.000     0.000   214.425     4.121     0.000     0.000     0.000     0.559     0.580     0.000     0.000     0.000     0.000     0.000     0.000     0.021     0.000     0.000 .00000E+00 0.000E+00 0.000E+00 0.000E+00
BIGSUB   9        0    7.47420E+04     0.000     0.000   203.982     9.784     0.000     0.000     0.005     0.915     0.937     0.000     0.000     0.000     0.001     0.000     0.000     0.017     0.000     0.000 .00000E+00 0.000E+00 0.000E+00 0.000E+00
BIGSUB  10        0    7.13380E+04     0.000     0.000   203.978     6.451     0.000     0.000     0.000     0.474     0.483     0.000     0.000     0.000     0.000     0.000     0.000     0.009     0.000     0.000 .00000E+00 0.000E+00 0.000E+00 0.000E+00
BIGSUB  11        0    7.24060E+04     0.000     0.000   184.199     3.852     0.000     0.000     0.000     0.619     0.624     0.000     0.000     0.000     0.000     0.000     0.000     0.005     0.000     0.000 .00000E+00 0.000E+00 0.000E+00 0.000E+00
BIGSUB  12        0    7.19770E+04     0.000     0.000   196.316     1.341     0.000     0.000     0.000     0.755     0.757     0.000     0.000     0.000     0.000     0.000     0.000     0.002     0.000     0.000 .00000E+00 0.000E+00 0.000E+00 0.000E+00
BIGSUB  13        0    7.16410E+04     0.000     0.000   184.192     8.611     0.000     0.000     0.000     0.610     0.614     0.000     0.000     0.000     0.000     0.000     0.000     0.004     0.000     0.000 .00000E+00 0.000E+00 0.000E+00 0.000E+00
BIGSUB  14        0    7.52740E+04     0.000     0.000   196.302     4.170     0.000     0.000     0.000     0.987     0.992     0.000     0.000     0.000     0.000     0.000     0.000     0.005     0.000     0.000 .00000E+00 0.000E+00 0.000E+00 0.000E+00
BIGSUB  15        0    7.42200E+03     0.000     0.000   184.184     3.884    13.381     0.000     0.000     0.499     0.503     0.000     0.000     0.000     0.000     0.000     0.000     0.004     0.000     0.000 .00000E+00 0.000E+00 0.000E+00 0.000E+00
BIGSUB  16        0    7.13850E+04     0.000     0.000   184.176     0.000     0.000     0.000     0.000     0.653     0.656     0.000     0.000     0.000     0.000     0.000     0.000     0.003     0.000     0.000 .00000E+00 0.000E+00 0.000E+00 0.000E+00
BIGSUB  17        0    7.17180E+04     0.000     0.000   196.280     7.637     0.000     0.000     0.000     0.849     0.851     0.000     0.000     0.000     0.000     0.000     0.000     0.002     0.000     0.000 .00000E+00 0.000E+00 0.000E+00 0.000E+00
BIGSUB  18        0    7.26090E+04     0.000     0.000   196.288     2.943     0.000     0.000     0.000     0.891     0.894     0.000     0.000     0.000     0.000     0.000     0.000     0.003     0.000     0.000 .00000E+00 0.000E+00 0.000E+00 0.000E+00
BIGSUB  19        0    7.25380E+04     0.000     0.000   196.263    28.328     0.000     0.000     0.000     0.436     0.452     0.000     0.000     0.000     0.000     0.000     0.000     0.017     0.000     0.000 .00000E+00 0.000E+00 0.000E+00 0.000E+00
BIGSUB  20        0    7.19820E+04     0.000     0.000   196.253    37.165     0.000     0.000     0.000     0.444     0.464     0.000     0.000     0.000     0.000     0.000     0.000     0.020     0.000     0.000 .00000E+00 0.000E+00 0.000E+00 0.000E+00
BIGSUB   1        0    8.12360E+04     4.000     0.000   176.669     3.995     0.000     0.000     0.000     0.341     0.351     0.000     0.000     0.000     0.001     0.000     0.000     0.009     0.000     0.000 .00000E+00 0.000E+00 0.000E+00 0.000E+00
BIGSUB   2        0    8.37400E+03     4.000     0.000   176.760     3.982     0.000     0.000     0.000     0.356     0.374     0.000     0.000     0.000     0.002     0.000     0.000     0.017     0.000     0.000 .00000E+00 0.000E+00 0.000E+00 0.000E+00
BIGSUB   3        0    8.14590E+04     4.000     0.000   176.667     6.918     5.714     0.000     0.001     0.441     0.454     0.000     0.000     0.000     0.003     0.000     0.000     0.011     0.000     0.000 .00000E+00 0.000E+00 0.000E+00 0.000E+00
BIGSUB   4        0    8.91800E+03     4.000     0.000   176.683     3.994     0.000     0.000     0.000     0.325     0.334     0.000     0.000     0.000     0.002     0.000     0.000     0.009     0.000     0.000 .00000E+00 0.000E+00 0.000E+00 0.000E+00
BIGSUB   5        0    8.37770E+04     4.000     0.000   176.830     3.993     0.000     0.000     0.002     0.673     0.683     0.000     0.000     0.000     0.004     0.000     0.000     0.008     0.000     0.000 .00000E+00 0.000E+00 0.000E+00 0.000E+00
BIGSUB   6        0    8.18250E+04     4.000     0.000   177.004     3.992     0.000     0.000     0.003     0.917     0.929     0.000     0.000     0.000     0.005     0.000     0.000     0.009     0.000     0.000 .00000E+00 0.000E+00 0.000E+00 0.000E+00
BIGSUB   7        0    8.14660E+04     4.000     0.000   177.020     3.993     0.000     0.000     0.003     0.858     0.864     0.000     0.000     0.000     0.000     0.000     0.000     0.002     0.000     0.000 .00000E+00 0.000E+00 0.000E+00 0.000E+00
BIGSUB   8        0    8.34940E+04     4.000     0.000   177.349     3.994     0.000     0.000     0.001     0.483     0.497     0.000     0.000     0.000     0.001     0.000     0.000     0.013     0.000     0.000 .00000E+00 0.000E+00 0.000E+00 0.000E+00
BIGSUB   9        0    8.47420E+04    13.000     0.000   160.352     4.902     5.116     0.000     2.641     0.793     3.443     0.163     0.052     0.006     0.589     0.000     0.021     0.009     0.000     0.000 .00000E+00 0.000E+00 0.000E+00 0.000E+00
BIGSUB  10        0    8.13380E+04    13.000     0.000   160.543     4.278     5.525     0.000     3.117     0.410     3.536     0.772     0.082     0.010     0.852     0.000     0.024     0.008     0.000     0.000 .00000E+00 0.000E+00 0.000E+00 0.000E+00
BIGSUB  11        0    8.24060E+04     6.951     0.000   169.046     6.591     0.000     0.000     0.182     0.543     0.730     0.000     0.000     0.000     0.022     0.000     0.000     0.004     0.000     0.000 .00000E+00 0.000E+00 0.000E+00 0.000E+00
BIGSUB  12        0    8.19770E+04    10.000     0.000   160.306     5.923     2.585     0.000     1.226     0.653     1.882     0.065     0.023     0.003     0.445     0.000     0.006     0.002     0.000     0.000 .00000E+00 0.000E+00 0.000E+00 0.000E+00
BIGSUB  13        0    8.16410E+04     6.951     0.000   169.197     6.701     0.000     0.000     0.126     0.533     0.663     0.000     0.000     0.000     0.039     0.000     0.000     0.003     0.000     0.000 .00000E+00 0.000E+00 0.000E+00 0.000E+00
BIGSUB  14        0    8.52740E+04    10.000     0.000   160.552     5.795     2.710     0.000     1.012     0.855     1.871     0.042     0.010     0.001     0.264     0.000     0.003     0.005     0.000     0.000 .00000E+00 0.000E+00 0.000E+00 0.000E+00
BIGSUB  15        0    8.42200E+03     6.951     0.000   169.337     8.541    11.521     0.000     0.108     0.439     0.551     0.000     0.000     0.000     0.040     0.000     0.000     0.004     0.000     0.000 .00000E+00 0.000E+00 0.000E+00 0.000E+00
BIGSUB  16        0    8.13850E+04     6.951     0.000   169.455     6.331     0.000     0.000     0.400     0.575     0.978     0.003     0.001     0.000     0.125     0.000     0.001     0.003     0.000     0.000 .00000E+00 0.000E+00 0.000E+00 0.000E+00
BIGSUB  17        0    8.17180E+04    10.000     0.000   160.798     5.724     2.786     0.000     1.095     0.736     1.833     0.023     0.014     0.002     0.107     0.000     0.004     0.002     0.000     0.000 .00000E+00 0.000E+00 0.000E+00 0.000E+00
BIGSUB  18        0    8.26090E+04    10.000     0.000   160.719     5.875     2.631     0.000     1.033     0.772     1.808     0.029     0.013     0.002     0.331     0.000     0.005     0.003     0.000     0.000 .00000E+00 0.000E+00 0.000E+00 0.000E+00
BIGSUB  19        0    8.25380E+04    10.000     0.000   160.955     6.807     2.397     0.000     0.704     0.377     1.091     0.028     0.010     0.001     0.210     0.000     0.004     0.009     0.000     0.000 .00000E+00 0.000E+00 0.000E+00 0.000E+00
BIGSUB  20        0    8.19820E+04    10.000     0.000   161.028     7.131     2.320     0.000     0.494     0.384     0.888     0.039     0.005     0.001     0.074     0.000     0.002     0.011     0.000     0.000 .00000E+00 0.000E+00 0.000E+00 0.000E+00
