1
    SWAT May 6 2015    VER 2015/Rev 637                                                                  0/ 0/   0      0: 0: 0

    General Input/Output section (file.cio):                                        
    11/14/2011 12:00:00 AM ARCGIS-SWAT interface AV                                 
                                                                                    


       RCH      GIS   MON     AREAkm2  FLOW_INcms FLOW_OUTcms     EVAPcms    TLOSScms  SED_INtons SED_OUTtonsSEDCONCmg/kg   ORGN_INkg  ORGN_OUTkg   ORGP_INkg  ORGP_OUTkg    NO3_INkg   NO3_OUTkg    NH4_INkg   NH4_OUTkg    NO2_INkg   NO2_OUTkg   MINP_INkg  MINP_OUTkg   CHLA_INkg  CHLA_OUTkg   CBOD_INkg  CBOD_OUTkg  DISOX_INkg DISOX_OUTkg SOLPST_INmgSOLPST_OUTmg SORPST_INmgSORPST_OUTmg  REACTPSTmg    VOLPSTmg  SETTLPSTmgRESUSP_PSTmgDIFFUSEPSTmgREACBEDPSTmg   BURYPSTmg   BED_PSTmg BACTP_OUTctBACTLP_OUTct  CMETAL#1kg  CMETAL#2kg  CMETAL#3kg     TOT Nkg     TOT Pkg NO3ConcMg/l    WTMPdegc
REACH    1        0     1  0.1236E+04  0.6159E+01  0.6158E+01  0.9973E-03  0.0000E+00  0.2794E+06  0.2794E+06  0.2843E+04  0.1400E+06  0.1398E+06  0.6401E+05  0.6384E+05  0.1656E+05  0.1656E+05  0.0000E+00  0.1918E+03  0.0000E+00  0.0000E+00  0.1730E+03  0.3168E+03  0.0000E+00  0.0000E+00  0.0000E+00  0.0000E+00  0.0000E+00  0.4948E+02  0.0000E+00  0.0000E+00  0.0000E+00  0.0000E+00  0.0000E+00  0.0000E+00  0.0000E+00  0.0000E+00  0.0000E+00  0.0000E+00  0.0000E+00  0.0000E+00  0.0000E+00  0.0000E+00  0.0000E+00  0.0000E+00  0.0000E+00  0.1565E+06  0.6415E+05  0.0000E+00  0.0000E+00
REACH    2        0     1  0.4258E+05  0.1771E+03  0.1770E+03  0.1018E+00  0.0000E+00  0.3161E+06  0.8988E+05  0.9485E+02  0.3731E+07  0.3649E+07  0.1468E+07  0.1421E+07  0.5448E+06  0.5470E+06  0.3266E+06  0.3773E+06  0.1834E+05  0.2510E+05  0.2345E+06  0.2734E+06  0.0000E+00  0.0000E+00  0.0000E+00  0.0000E+00  0.5951E+07  0.5986E+07  0.0000E+00  0.0000E+00  0.0000E+00  0.0000E+00  0.0000E+00  0.0000E+00  0.0000E+00  0.0000E+00  0.0000E+00  0.0000E+00  0.0000E+00  0.0000E+00  0.0000E+00  0.0000E+00  0.0000E+00  0.0000E+00  0.0000E+00  0.4599E+07  0.1694E+07  0.0000E+00  0.0000E+00
REACH    3        0     1  0.4221E+05  0.1749E+03  0.1749E+03  0.1154E+00  0.0000E+00  0.2766E+07  0.7251E+05  0.7667E+02  0.3785E+07  0.3669E+07  0.1509E+07  0.1441E+07  0.5364E+06  0.5388E+06  0.2510E+06  0.3266E+06  0.1156E+05  0.1834E+05  0.1781E+06  0.2345E+06  0.0000E+00  0.0000E+00  0.0000E+00  0.0000E+00  0.3870E+07  0.5951E+07  0.0000E+00  0.0000E+00  0.0000E+00  0.0000E+00  0.0000E+00  0.0000E+00  0.0000E+00  0.0000E+00  0.0000E+00  0.0000E+00  0.0000E+00  0.0000E+00  0.0000E+00  0.0000E+00  0.0000E+00  0.0000E+00  0.0000E+00  0.4553E+07  0.1676E+07  0.0000E+00  0.0000E+00
REACH    4        0     1  0.2154E+04  0.1152E+02  0.1149E+02  0.2134E-01  0.0000E+00  0.5470E+06  0.7118E+04  0.5478E+02  0.2629E+06  0.2562E+06  0.1214E+06  0.1168E+06  0.3125E+05  0.3121E+05  0.1918E+03  0.6107E+03  0.0000E+00  0.2730E+00  0.4560E+03  0.1392E+04  0.0000E+00  0.0000E+00  0.0000E+00  0.0000E+00  0.4948E+02  0.2221E+04  0.0000E+00  0.0000E+00  0.0000E+00  0.0000E+00  0.0000E+00  0.0000E+00  0.0000E+00  0.0000E+00  0.0000E+00  0.0000E+00  0.0000E+00  0.0000E+00  0.0000E+00  0.0000E+00  0.0000E+00  0.0000E+00  0.0000E+00  0.2881E+06  0.1182E+06  0.0000E+00  0.0000E+00
REACH    5        0     1  0.3777E+04  0.2557E+02  0.2549E+02  0.6749E-01  0.0000E+00  0.9020E+06  0.9009E+06  0.2644E+04  0.7387E+06  0.6974E+06  0.3034E+06  0.2782E+06  0.7257E+05  0.7234E+05  0.0000E+00  0.2487E+05  0.0000E+00  0.2328E+01  0.7063E+03  0.2526E+04  0.0000E+00  0.0000E+00  0.0000E+00  0.0000E+00  0.0000E+00  0.9168E+04  0.0000E+00  0.0000E+00  0.0000E+00  0.0000E+00  0.0000E+00  0.0000E+00  0.0000E+00  0.0000E+00  0.0000E+00  0.0000E+00  0.0000E+00  0.0000E+00  0.0000E+00  0.0000E+00  0.0000E+00  0.0000E+00  0.0000E+00  0.7946E+06  0.2807E+06  0.0000E+00  0.0000E+00
REACH    6        0     1  0.1825E+04  0.1587E+02  0.1583E+02  0.3152E-01  0.0000E+00  0.9226E+06  0.9222E+06  0.4578E+04  0.4882E+06  0.4687E+06  0.2033E+06  0.1913E+06  0.4343E+05  0.4331E+05  0.0000E+00  0.1172E+05  0.0000E+00  0.1366E+00  0.3847E+03  0.1236E+04  0.0000E+00  0.0000E+00  0.0000E+00  0.0000E+00  0.0000E+00  0.1453E+04  0.0000E+00  0.0000E+00  0.0000E+00  0.0000E+00  0.0000E+00  0.0000E+00  0.0000E+00  0.0000E+00  0.0000E+00  0.0000E+00  0.0000E+00  0.0000E+00  0.0000E+00  0.0000E+00  0.0000E+00  0.0000E+00  0.0000E+00  0.5237E+06  0.1925E+06  0.0000E+00  0.0000E+00
REACH    7        0     1  0.3299E+05  0.1112E+03  0.1113E+03  0.1049E+00  0.0000E+00  0.7578E+06  0.3542E+05  0.5917E+02  0.2181E+07  0.2086E+07  0.8444E+06  0.7903E+06  0.3603E+06  0.3626E+06  0.1572E+06  0.2138E+06  0.6726E+04  0.1156E+05  0.1279E+06  0.1727E+06  0.0000E+00  0.0000E+00  0.0000E+00  0.0000E+00  0.2690E+07  0.3857E+07  0.0000E+00  0.0000E+00  0.0000E+00  0.0000E+00  0.0000E+00  0.0000E+00  0.0000E+00  0.0000E+00  0.0000E+00  0.0000E+00  0.0000E+00  0.0000E+00  0.0000E+00  0.0000E+00  0.0000E+00  0.0000E+00  0.0000E+00  0.2674E+07  0.9630E+06  0.0000E+00  0.0000E+00
REACH    8        0     1  0.2678E+05  0.9236E+02  0.9255E+02  0.2110E+00  0.0000E+00  0.1100E+07  0.8162E+05  0.2363E+03  0.1803E+07  0.1669E+07  0.6927E+06  0.6175E+06  0.3109E+06  0.3131E+06  0.9014E+05  0.1571E+06  0.2616E+04  0.6717E+04  0.7366E+05  0.1253E+06  0.0000E+00  0.0000E+00  0.0000E+00  0.0000E+00  0.1490E+07  0.2663E+07  0.0000E+00  0.0000E+00  0.0000E+00  0.0000E+00  0.0000E+00  0.0000E+00  0.0000E+00  0.0000E+00  0.0000E+00  0.0000E+00  0.0000E+00  0.0000E+00  0.0000E+00  0.0000E+00  0.0000E+00  0.0000E+00  0.0000E+00  0.2146E+07  0.7429E+06  0.0000E+00  0.0000E+00
REACH    9        0     1  0.4742E+04  0.6298E+01  0.6179E+01  0.1154E+00  0.0000E+00  0.2325E+06  0.2076E+06  0.1361E+04  0.1873E+06  0.1611E+06  0.9800E+05  0.7811E+05  0.4004E+05  0.3968E+05  0.0000E+00  0.1364E+03  0.0000E+00  0.9752E+01  0.2246E+03  0.2193E+04  0.0000E+00  0.0000E+00  0.0000E+00  0.0000E+00  0.0000E+00  0.2633E+05  0.0000E+00  0.0000E+00  0.0000E+00  0.0000E+00  0.0000E+00  0.0000E+00  0.0000E+00  0.0000E+00  0.0000E+00  0.0000E+00  0.0000E+00  0.0000E+00  0.0000E+00  0.0000E+00  0.0000E+00  0.0000E+00  0.0000E+00  0.2009E+06  0.8030E+05  0.0000E+00  0.0000E+00
REACH   10        0     1  0.2329E+05  0.7367E+02  0.7393E+02  0.1793E+00  0.0000E+00  0.1619E+07  0.6330E+05  0.4383E+03  0.1232E+07  0.1139E+07  0.4963E+06  0.4419E+06  0.2555E+06  0.2569E+06  0.4072E+05  0.9014E+05  0.7757E+03  0.2616E+04  0.3314E+05  0.7318E+05  0.0000E+00  0.0000E+00  0.0000E+00  0.0000E+00  0.7099E+06  0.1490E+07  0.0000E+00  0.0000E+00  0.0000E+00  0.0000E+00  0.0000E+00  0.0000E+00  0.0000E+00  0.0000E+00  0.0000E+00  0.0000E+00  0.0000E+00  0.0000E+00  0.0000E+00  0.0000E+00  0.0000E+00  0.0000E+00  0.0000E+00  0.1489E+07  0.5151E+06  0.0000E+00  0.0000E+00
REACH   11        0     1  0.2406E+04  0.2166E+02  0.2162E+02  0.3638E-01  0.0000E+00  0.1350E+07  0.1350E+07  0.3204E+04  0.4232E+06  0.4153E+06  0.1784E+06  0.1734E+06  0.3317E+05  0.3313E+05  0.0000E+00  0.3909E+04  0.0000E+00  0.8086E-02  0.3212E+03  0.9829E+03  0.0000E+00  0.0000E+00  0.0000E+00  0.0000E+00  0.0000E+00  0.2198E+03  0.0000E+00  0.0000E+00  0.0000E+00  0.0000E+00  0.0000E+00  0.0000E+00  0.0000E+00  0.0000E+00  0.0000E+00  0.0000E+00  0.0000E+00  0.0000E+00  0.0000E+00  0.0000E+00  0.0000E+00  0.0000E+00  0.0000E+00  0.4524E+06  0.1744E+06  0.0000E+00  0.0000E+00
REACH   12        0     1  0.1977E+04  0.2979E+01  0.2971E+01  0.7231E-02  0.0000E+00  0.4301E+05  0.4301E+05  0.8057E+03  0.5536E+05  0.5352E+05  0.2081E+05  0.1979E+05  0.1723E+05  0.1719E+05  0.0000E+00  0.1076E+04  0.0000E+00  0.8243E-04  0.8057E+02  0.2399E+03  0.0000E+00  0.0000E+00  0.0000E+00  0.0000E+00  0.0000E+00  0.2387E+02  0.0000E+00  0.0000E+00  0.0000E+00  0.0000E+00  0.0000E+00  0.0000E+00  0.0000E+00  0.0000E+00  0.0000E+00  0.0000E+00  0.0000E+00  0.0000E+00  0.0000E+00  0.0000E+00  0.0000E+00  0.0000E+00  0.0000E+00  0.7179E+05  0.2003E+05  0.0000E+00  0.0000E+00
REACH   13        0     1  0.1757E+05  0.4750E+02  0.4758E+02  0.1316E+00  0.0000E+00  0.5653E+06  0.1529E+05  0.7093E+02  0.7029E+06  0.6589E+06  0.2856E+06  0.2596E+06  0.1963E+06  0.1968E+06  0.1371E+05  0.3573E+05  0.2207E+03  0.7756E+03  0.1247E+05  0.3187E+05  0.0000E+00  0.0000E+00  0.0000E+00  0.0000E+00  0.2659E+06  0.7097E+06  0.0000E+00  0.0000E+00  0.0000E+00  0.0000E+00  0.0000E+00  0.0000E+00  0.0000E+00  0.0000E+00  0.0000E+00  0.0000E+00  0.0000E+00  0.0000E+00  0.0000E+00  0.0000E+00  0.0000E+00  0.0000E+00  0.0000E+00  0.8923E+06  0.2914E+06  0.0000E+00  0.0000E+00
REACH   14        0     1  0.5274E+04  0.7954E+01  0.7823E+01  0.1182E+00  0.0000E+00  0.1071E+06  0.7034E+05  0.8358E+03  0.1112E+06  0.8755E+05  0.4506E+05  0.3151E+05  0.4395E+05  0.4318E+05  0.0000E+00  0.1670E+04  0.0000E+00  0.1469E+03  0.1964E+03  0.3768E+04  0.0000E+00  0.0000E+00  0.0000E+00  0.0000E+00  0.0000E+00  0.1618E+06  0.0000E+00  0.0000E+00  0.0000E+00  0.0000E+00  0.0000E+00  0.0000E+00  0.0000E+00  0.0000E+00  0.0000E+00  0.0000E+00  0.0000E+00  0.0000E+00  0.0000E+00  0.0000E+00  0.0000E+00  0.0000E+00  0.0000E+00  0.1325E+06  0.3527E+05  0.0000E+00  0.0000E+00
REACH   15        0     1  0.3525E+04  0.1865E+02  0.1865E+02  0.3674E-01  0.0000E+00  0.4782E+06  0.7858E+04  0.1109E+03  0.2950E+06  0.2837E+06  0.1283E+06  0.1211E+06  0.6705E+05  0.6709E+05  0.1893E+04  0.6193E+04  0.1534E-02  0.4823E+00  0.1369E+04  0.4604E+04  0.0000E+00  0.0000E+00  0.0000E+00  0.0000E+00  0.1245E+03  0.1097E+04  0.0000E+00  0.0000E+00  0.0000E+00  0.0000E+00  0.0000E+00  0.0000E+00  0.0000E+00  0.0000E+00  0.0000E+00  0.0000E+00  0.0000E+00  0.0000E+00  0.0000E+00  0.0000E+00  0.0000E+00  0.0000E+00  0.0000E+00  0.3570E+06  0.1258E+06  0.0000E+00  0.0000E+00
REACH   16        0     1  0.1385E+04  0.1293E+02  0.1291E+02  0.1106E-01  0.0000E+00  0.3303E+06  0.3303E+06  0.1323E+04  0.2031E+06  0.2007E+06  0.9177E+05  0.9012E+05  0.4427E+05  0.4423E+05  0.0000E+00  0.1222E+04  0.0000E+00  0.4521E-03  0.3428E+03  0.1032E+04  0.0000E+00  0.0000E+00  0.0000E+00  0.0000E+00  0.0000E+00  0.1038E+03  0.0000E+00  0.0000E+00  0.0000E+00  0.0000E+00  0.0000E+00  0.0000E+00  0.0000E+00  0.0000E+00  0.0000E+00  0.0000E+00  0.0000E+00  0.0000E+00  0.0000E+00  0.0000E+00  0.0000E+00  0.0000E+00  0.0000E+00  0.2461E+06  0.9116E+05  0.0000E+00  0.0000E+00
REACH   17        0     1  0.1718E+04  0.2451E+01  0.2437E+01  0.1414E-01  0.0000E+00  0.2090E+05  0.2090E+05  0.5321E+03  0.3379E+05  0.3203E+05  0.1356E+05  0.1253E+05  0.1502E+05  0.1494E+05  0.0000E+00  0.6710E+03  0.0000E+00  0.1082E-02  0.7951E+02  0.2609E+03  0.0000E+00  0.0000E+00  0.0000E+00  0.0000E+00  0.0000E+00  0.2074E+02  0.0000E+00  0.0000E+00  0.0000E+00  0.0000E+00  0.0000E+00  0.0000E+00  0.0000E+00  0.0000E+00  0.0000E+00  0.0000E+00  0.0000E+00  0.0000E+00  0.0000E+00  0.0000E+00  0.0000E+00  0.0000E+00  0.0000E+00  0.4764E+05  0.1279E+05  0.0000E+00  0.0000E+00
REACH   18        0     1  0.7129E+04  0.8302E+01  0.8200E+01  0.9771E-01  0.0000E+00  0.1137E+06  0.1339E+05  0.1272E+03  0.1017E+06  0.8594E+05  0.4473E+05  0.3485E+05  0.4849E+05  0.4795E+05  0.1202E+04  0.5844E+04  0.5198E+00  0.7330E+02  0.6021E+03  0.3827E+04  0.0000E+00  0.0000E+00  0.0000E+00  0.0000E+00  0.3387E+04  0.1030E+06  0.0000E+00  0.0000E+00  0.0000E+00  0.0000E+00  0.0000E+00  0.0000E+00  0.0000E+00  0.0000E+00  0.0000E+00  0.0000E+00  0.0000E+00  0.0000E+00  0.0000E+00  0.0000E+00  0.0000E+00  0.0000E+00  0.0000E+00  0.1398E+06  0.3868E+05  0.0000E+00  0.0000E+00
REACH   19        0     1  0.2538E+04  0.2619E+01  0.2601E+01  0.1723E-01  0.0000E+00  0.3974E+05  0.3974E+05  0.5984E+03  0.3861E+05  0.3689E+05  0.1663E+05  0.1554E+05  0.1572E+05  0.1566E+05  0.0000E+00  0.5056E+03  0.0000E+00  0.2840E-02  0.8272E+02  0.2593E+03  0.0000E+00  0.0000E+00  0.0000E+00  0.0000E+00  0.0000E+00  0.2575E+02  0.0000E+00  0.0000E+00  0.0000E+00  0.0000E+00  0.0000E+00  0.0000E+00  0.0000E+00  0.0000E+00  0.0000E+00  0.0000E+00  0.0000E+00  0.0000E+00  0.0000E+00  0.0000E+00  0.0000E+00  0.0000E+00  0.0000E+00  0.5305E+05  0.1580E+05  0.0000E+00  0.0000E+00
REACH   20        0     1  0.1982E+04  0.1722E+01  0.1701E+01  0.2083E-01  0.0000E+00  0.4235E+05  0.4223E+05  0.9626E+03  0.2665E+05  0.2444E+05  0.1189E+05  0.1047E+05  0.1068E+05  0.1060E+05  0.0000E+00  0.6966E+03  0.0000E+00  0.5169E+00  0.5115E+02  0.2254E+03  0.0000E+00  0.0000E+00  0.0000E+00  0.0000E+00  0.0000E+00  0.3361E+04  0.0000E+00  0.0000E+00  0.0000E+00  0.0000E+00  0.0000E+00  0.0000E+00  0.0000E+00  0.0000E+00  0.0000E+00  0.0000E+00  0.0000E+00  0.0000E+00  0.0000E+00  0.0000E+00  0.0000E+00  0.0000E+00  0.0000E+00  0.3574E+05  0.1069E+05  0.0000E+00  0.0000E+00
REACH    1        0     2  0.1236E+04  0.1271E+02  0.1270E+02  0.1967E-02  0.0000E+00  0.7524E+06  0.7524E+06  0.4621E+04  0.3941E+06  0.3936E+06  0.1669E+06  0.1666E+06  0.1807E+05  0.1806E+05  0.0000E+00  0.3689E+03  0.0000E+00  0.0000E+00  0.3203E+03  0.5749E+03  0.0000E+00  0.0000E+00  0.0000E+00  0.0000E+00  0.0000E+00  0.8891E+02  0.0000E+00  0.0000E+00  0.0000E+00  0.0000E+00  0.0000E+00  0.0000E+00  0.0000E+00  0.0000E+00  0.0000E+00  0.0000E+00  0.0000E+00  0.0000E+00  0.0000E+00  0.0000E+00  0.0000E+00  0.0000E+00  0.0000E+00  0.4120E+06  0.1671E+06  0.0000E+00  0.0000E+00
REACH    2        0     2  0.4258E+05  0.3941E+03  0.3939E+03  0.2004E+00  0.0000E+00  0.8887E+06  0.2671E+06  0.1263E+03  0.9559E+07  0.9411E+07  0.3803E+07  0.3716E+07  0.7719E+06  0.7722E+06  0.6849E+06  0.7824E+06  0.5156E+04  0.9012E+04  0.3926E+06  0.4644E+06  0.0000E+00  0.0000E+00  0.0000E+00  0.0000E+00  0.6733E+07  0.8536E+07  0.0000E+00  0.0000E+00  0.0000E+00  0.0000E+00  0.0000E+00  0.0000E+00  0.0000E+00  0.0000E+00  0.0000E+00  0.0000E+00  0.0000E+00  0.0000E+00  0.0000E+00  0.0000E+00  0.0000E+00  0.0000E+00  0.0000E+00  0.1097E+08  0.4180E+07  0.0000E+00  0.0000E+00
REACH    3        0     2  0.4221E+05  0.3904E+03  0.3900E+03  0.2275E+00  0.0000E+00  0.6851E+07  0.2168E+06  0.1031E+03  0.9613E+07  0.9404E+07  0.3863E+07  0.3739E+07  0.7659E+06  0.7660E+06  0.5416E+06  0.6849E+06  0.3134E+04  0.5156E+04  0.2903E+06  0.3926E+06  0.0000E+00  0.0000E+00  0.0000E+00  0.0000E+00  0.3785E+07  0.6733E+07  0.0000E+00  0.0000E+00  0.0000E+00  0.0000E+00  0.0000E+00  0.0000E+00  0.0000E+00  0.0000E+00  0.0000E+00  0.0000E+00  0.0000E+00  0.0000E+00  0.0000E+00  0.0000E+00  0.0000E+00  0.0000E+00  0.0000E+00  0.1086E+08  0.4131E+07  0.0000E+00  0.0000E+00
REACH    4        0     2  0.2154E+04  0.2290E+02  0.2286E+02  0.4206E-01  0.0000E+00  0.1506E+07  0.2159E+05  0.1347E+03  0.7114E+06  0.6990E+06  0.3047E+06  0.2967E+06  0.3252E+05  0.3243E+05  0.3689E+03  0.1173E+04  0.0000E+00  0.1964E-01  0.8020E+03  0.2451E+04  0.0000E+00  0.0000E+00  0.0000E+00  0.0000E+00  0.8891E+02  0.3268E+03  0.0000E+00  0.0000E+00  0.0000E+00  0.0000E+00  0.0000E+00  0.0000E+00  0.0000E+00  0.0000E+00  0.0000E+00  0.0000E+00  0.0000E+00  0.0000E+00  0.0000E+00  0.0000E+00  0.0000E+00  0.0000E+00  0.0000E+00  0.7326E+06  0.2992E+06  0.0000E+00  0.0000E+00
REACH    5        0     2  0.3777E+04  0.4616E+02  0.4603E+02  0.1328E+00  0.0000E+00  0.2133E+07  0.2133E+07  0.3467E+04  0.1545E+07  0.1475E+07  0.6282E+06  0.5858E+06  0.7226E+05  0.7191E+05  0.0000E+00  0.3133E+05  0.0000E+00  0.1456E+01  0.1041E+04  0.3422E+04  0.0000E+00  0.0000E+00  0.0000E+00  0.0000E+00  0.0000E+00  0.1958E+05  0.0000E+00  0.0000E+00  0.0000E+00  0.0000E+00  0.0000E+00  0.0000E+00  0.0000E+00  0.0000E+00  0.0000E+00  0.0000E+00  0.0000E+00  0.0000E+00  0.0000E+00  0.0000E+00  0.0000E+00  0.0000E+00  0.0000E+00  0.1578E+07  0.5892E+06  0.0000E+00  0.0000E+00
REACH    6        0     2  0.1825E+04  0.2596E+02  0.2590E+02  0.6187E-01  0.0000E+00  0.2076E+07  0.2076E+07  0.6101E+04  0.8262E+06  0.7964E+06  0.3478E+06  0.3292E+06  0.3995E+05  0.3978E+05  0.0000E+00  0.1351E+05  0.0000E+00  0.1327E-01  0.4720E+03  0.1469E+04  0.0000E+00  0.0000E+00  0.0000E+00  0.0000E+00  0.0000E+00  0.3215E+03  0.0000E+00  0.0000E+00  0.0000E+00  0.0000E+00  0.0000E+00  0.0000E+00  0.0000E+00  0.0000E+00  0.0000E+00  0.0000E+00  0.0000E+00  0.0000E+00  0.0000E+00  0.0000E+00  0.0000E+00  0.0000E+00  0.0000E+00  0.8497E+06  0.3307E+06  0.0000E+00  0.0000E+00
REACH    7        0     2  0.3299E+05  0.2772E+03  0.2768E+03  0.2059E+00  0.0000E+00  0.2932E+07  0.1161E+06  0.8533E+02  0.6293E+07  0.6103E+07  0.2508E+07  0.2396E+07  0.5994E+06  0.5993E+06  0.3685E+06  0.4956E+06  0.1783E+04  0.3132E+04  0.2000E+06  0.2827E+06  0.0000E+00  0.0000E+00  0.0000E+00  0.0000E+00  0.1886E+07  0.3765E+07  0.0000E+00  0.0000E+00  0.0000E+00  0.0000E+00  0.0000E+00  0.0000E+00  0.0000E+00  0.0000E+00  0.0000E+00  0.0000E+00  0.0000E+00  0.0000E+00  0.0000E+00  0.0000E+00  0.0000E+00  0.0000E+00  0.0000E+00  0.7201E+07  0.2679E+07  0.0000E+00  0.0000E+00
REACH    8        0     2  0.2678E+05  0.2078E+03  0.2070E+03  0.4120E+00  0.0000E+00  0.3551E+07  0.1415E+06  0.2682E+03  0.4498E+07  0.4245E+07  0.1713E+07  0.1571E+07  0.5100E+06  0.5084E+06  0.2073E+06  0.3181E+06  0.7318E+03  0.1782E+04  0.1185E+06  0.1943E+06  0.0000E+00  0.0000E+00  0.0000E+00  0.0000E+00  0.8008E+06  0.1874E+07  0.0000E+00  0.0000E+00  0.0000E+00  0.0000E+00  0.0000E+00  0.0000E+00  0.0000E+00  0.0000E+00  0.0000E+00  0.0000E+00  0.0000E+00  0.0000E+00  0.0000E+00  0.0000E+00  0.0000E+00  0.0000E+00  0.0000E+00  0.5073E+07  0.1765E+07  0.0000E+00  0.0000E+00
REACH    9        0     2  0.4742E+04  0.4946E+02  0.4925E+02  0.1924E+00  0.0000E+00  0.1864E+07  0.1863E+07  0.3170E+04  0.1559E+07  0.1456E+07  0.7599E+06  0.6852E+06  0.8068E+05  0.8039E+05  0.0000E+00  0.5040E+05  0.0000E+00  0.1340E+01  0.1518E+04  0.5297E+04  0.0000E+00  0.0000E+00  0.0000E+00  0.0000E+00  0.0000E+00  0.1239E+05  0.0000E+00  0.0000E+00  0.0000E+00  0.0000E+00  0.0000E+00  0.0000E+00  0.0000E+00  0.0000E+00  0.0000E+00  0.0000E+00  0.0000E+00  0.0000E+00  0.0000E+00  0.0000E+00  0.0000E+00  0.0000E+00  0.0000E+00  0.1587E+07  0.6905E+06  0.0000E+00  0.0000E+00
REACH   10        0     2  0.2329E+05  0.1620E+03  0.1612E+03  0.2979E+00  0.0000E+00  0.2036E+07  0.7013E+05  0.7366E+02  0.2740E+07  0.2565E+07  0.1096E+07  0.9936E+06  0.4374E+06  0.4353E+06  0.1167E+06  0.2073E+06  0.2040E+03  0.7318E+03  0.5458E+05  0.1175E+06  0.0000E+00  0.0000E+00  0.0000E+00  0.0000E+00  0.2826E+06  0.8008E+06  0.0000E+00  0.0000E+00  0.0000E+00  0.0000E+00  0.0000E+00  0.0000E+00  0.0000E+00  0.0000E+00  0.0000E+00  0.0000E+00  0.0000E+00  0.0000E+00  0.0000E+00  0.0000E+00  0.0000E+00  0.0000E+00  0.0000E+00  0.3209E+07  0.1111E+07  0.0000E+00  0.0000E+00
REACH   11        0     2  0.2406E+04  0.9177E+01  0.9121E+01  0.4355E-01  0.0000E+00  0.2795E+06  0.2795E+06  0.9813E+03  0.1235E+06  0.1195E+06  0.5234E+05  0.4986E+05  0.1771E+05  0.1768E+05  0.0000E+00  0.1853E+04  0.0000E+00  0.1757E-01  0.1066E+03  0.3394E+03  0.0000E+00  0.0000E+00  0.0000E+00  0.0000E+00  0.0000E+00  0.7238E+02  0.0000E+00  0.0000E+00  0.0000E+00  0.0000E+00  0.0000E+00  0.0000E+00  0.0000E+00  0.0000E+00  0.0000E+00  0.0000E+00  0.0000E+00  0.0000E+00  0.0000E+00  0.0000E+00  0.0000E+00  0.0000E+00  0.0000E+00  0.1390E+06  0.5020E+05  0.0000E+00  0.0000E+00
REACH   12        0     2  0.1977E+04  0.1746E+02  0.1745E+02  0.1085E-01  0.0000E+00  0.2825E+06  0.2825E+06  0.1406E+04  0.3503E+06  0.3443E+06  0.1324E+06  0.1291E+06  0.4606E+05  0.4578E+05  0.0000E+00  0.3842E+04  0.0000E+00  0.2049E-03  0.4211E+03  0.1262E+04  0.0000E+00  0.0000E+00  0.0000E+00  0.0000E+00  0.0000E+00  0.1221E+03  0.0000E+00  0.0000E+00  0.0000E+00  0.0000E+00  0.0000E+00  0.0000E+00  0.0000E+00  0.0000E+00  0.0000E+00  0.0000E+00  0.0000E+00  0.0000E+00  0.0000E+00  0.0000E+00  0.0000E+00  0.0000E+00  0.0000E+00  0.3939E+06  0.1303E+06  0.0000E+00  0.0000E+00
REACH   13        0     2  0.1757E+05  0.1213E+03  0.1209E+03  0.1575E+00  0.0000E+00  0.9083E+06  0.4561E+05  0.6275E+02  0.1587E+07  0.1508E+07  0.6436E+06  0.5969E+06  0.3494E+06  0.3477E+06  0.6081E+05  0.1110E+06  0.3537E+02  0.2040E+03  0.2043E+05  0.5262E+05  0.0000E+00  0.0000E+00  0.0000E+00  0.0000E+00  0.9810E+05  0.2824E+06  0.0000E+00  0.0000E+00  0.0000E+00  0.0000E+00  0.0000E+00  0.0000E+00  0.0000E+00  0.0000E+00  0.0000E+00  0.0000E+00  0.0000E+00  0.0000E+00  0.0000E+00  0.0000E+00  0.0000E+00  0.0000E+00  0.0000E+00  0.1967E+07  0.6495E+06  0.0000E+00  0.0000E+00
REACH   14        0     2  0.5274E+04  0.4575E+02  0.4542E+02  0.1763E+00  0.0000E+00  0.7967E+06  0.7699E+06  0.1368E+04  0.7473E+06  0.6661E+06  0.3075E+06  0.2586E+06  0.1308E+06  0.1286E+06  0.0000E+00  0.2805E+05  0.0000E+00  0.1944E+02  0.1042E+04  0.5122E+04  0.0000E+00  0.0000E+00  0.0000E+00  0.0000E+00  0.0000E+00  0.5018E+05  0.0000E+00  0.0000E+00  0.0000E+00  0.0000E+00  0.0000E+00  0.0000E+00  0.0000E+00  0.0000E+00  0.0000E+00  0.0000E+00  0.0000E+00  0.0000E+00  0.0000E+00  0.0000E+00  0.0000E+00  0.0000E+00  0.0000E+00  0.8227E+06  0.2637E+06  0.0000E+00  0.0000E+00
REACH   15        0     2  0.3525E+04  0.2132E+02  0.2124E+02  0.4384E-01  0.0000E+00  0.2534E+06  0.5577E+04  0.4575E+02  0.2944E+06  0.2797E+06  0.1210E+06  0.1121E+06  0.7327E+05  0.7276E+05  0.3849E+04  0.1194E+05  0.2677E-02  0.7565E+00  0.1691E+04  0.5280E+04  0.0000E+00  0.0000E+00  0.0000E+00  0.0000E+00  0.1574E+03  0.1268E+04  0.0000E+00  0.0000E+00  0.0000E+00  0.0000E+00  0.0000E+00  0.0000E+00  0.0000E+00  0.0000E+00  0.0000E+00  0.0000E+00  0.0000E+00  0.0000E+00  0.0000E+00  0.0000E+00  0.0000E+00  0.0000E+00  0.0000E+00  0.3644E+06  0.1174E+06  0.0000E+00  0.0000E+00
REACH   16        0     2  0.1385E+04  0.5333E+01  0.5316E+01  0.1315E-01  0.0000E+00  0.7176E+05  0.7176E+05  0.4066E+03  0.6129E+05  0.6009E+05  0.2783E+05  0.2703E+05  0.2301E+05  0.2298E+05  0.0000E+00  0.5648E+03  0.0000E+00  0.8907E-03  0.1147E+03  0.3465E+03  0.0000E+00  0.0000E+00  0.0000E+00  0.0000E+00  0.0000E+00  0.3721E+02  0.0000E+00  0.0000E+00  0.0000E+00  0.0000E+00  0.0000E+00  0.0000E+00  0.0000E+00  0.0000E+00  0.0000E+00  0.0000E+00  0.0000E+00  0.0000E+00  0.0000E+00  0.0000E+00  0.0000E+00  0.0000E+00  0.0000E+00  0.8364E+05  0.2737E+05  0.0000E+00  0.0000E+00
REACH   17        0     2  0.1718E+04  0.1470E+02  0.1468E+02  0.2102E-01  0.0000E+00  0.1489E+06  0.1489E+06  0.7495E+03  0.2218E+06  0.2167E+06  0.8969E+05  0.8662E+05  0.4666E+05  0.4639E+05  0.0000E+00  0.3284E+04  0.0000E+00  0.1786E-02  0.4428E+03  0.1319E+04  0.0000E+00  0.0000E+00  0.0000E+00  0.0000E+00  0.0000E+00  0.1202E+03  0.0000E+00  0.0000E+00  0.0000E+00  0.0000E+00  0.0000E+00  0.0000E+00  0.0000E+00  0.0000E+00  0.0000E+00  0.0000E+00  0.0000E+00  0.0000E+00  0.0000E+00  0.0000E+00  0.0000E+00  0.0000E+00  0.0000E+00  0.2664E+06  0.8794E+05  0.0000E+00  0.0000E+00
REACH   18        0     2  0.7129E+04  0.4884E+02  0.4857E+02  0.1453E+00  0.0000E+00  0.5460E+06  0.2370E+05  0.1152E+03  0.5973E+06  0.5558E+06  0.2657E+06  0.2388E+06  0.1284E+06  0.1263E+06  0.6131E+04  0.2081E+05  0.4506E+00  0.1517E+02  0.2902E+04  0.9916E+04  0.0000E+00  0.0000E+00  0.0000E+00  0.0000E+00  0.5150E+04  0.4666E+05  0.0000E+00  0.0000E+00  0.0000E+00  0.0000E+00  0.0000E+00  0.0000E+00  0.0000E+00  0.0000E+00  0.0000E+00  0.0000E+00  0.0000E+00  0.0000E+00  0.0000E+00  0.0000E+00  0.0000E+00  0.0000E+00  0.0000E+00  0.7030E+06  0.2487E+06  0.0000E+00  0.0000E+00
REACH   19        0     2  0.2538E+04  0.1568E+02  0.1567E+02  0.2553E-01  0.0000E+00  0.1682E+06  0.1682E+06  0.1041E+04  0.2035E+06  0.1992E+06  0.8736E+05  0.8456E+05  0.4116E+05  0.4108E+05  0.0000E+00  0.2915E+04  0.0000E+00  0.7251E-02  0.4543E+03  0.1374E+04  0.0000E+00  0.0000E+00  0.0000E+00  0.0000E+00  0.0000E+00  0.1590E+03  0.0000E+00  0.0000E+00  0.0000E+00  0.0000E+00  0.0000E+00  0.0000E+00  0.0000E+00  0.0000E+00  0.0000E+00  0.0000E+00  0.0000E+00  0.0000E+00  0.0000E+00  0.0000E+00  0.0000E+00  0.0000E+00  0.0000E+00  0.2432E+06  0.8594E+05  0.0000E+00  0.0000E+00
REACH   20        0     2  0.1982E+04  0.1033E+02  0.1028E+02  0.3084E-01  0.0000E+00  0.1493E+06  0.1483E+06  0.1359E+04  0.1392E+06  0.1333E+06  0.6068E+05  0.5704E+05  0.2455E+05  0.2421E+05  0.0000E+00  0.3216E+04  0.0000E+00  0.4434E+00  0.2886E+03  0.9108E+03  0.0000E+00  0.0000E+00  0.0000E+00  0.0000E+00  0.0000E+00  0.4991E+04  0.0000E+00  0.0000E+00  0.0000E+00  0.0000E+00  0.0000E+00  0.0000E+00  0.0000E+00  0.0000E+00  0.0000E+00  0.0000E+00  0.0000E+00  0.0000E+00  0.0000E+00  0.0000E+00  0.0000E+00  0.0000E+00  0.0000E+00  0.1608E+06  0.5795E+05  0.0000E+00  0.0000E+00
REACH    1        0     3  0.1236E+04  0.6208E+01  0.6204E+01  0.4588E-02  0.0000E+00  0.4178E+06  0.4178E+06  0.4599E+04  0.1624E+06  0.1620E+06  0.7060E+05  0.7035E+05  0.1873E+05  0.1872E+05  0.0000E+00  0.2729E+03  0.0000E+00  0.0000E+00  0.1658E+03  0.3523E+03  0.0000E+00  0.0000E+00  0.0000E+00  0.0000E+00  0.0000E+00  0.4985E+02  0.0000E+00  0.0000E+00  0.0000E+00  0.0000E+00  0.0000E+00  0.0000E+00  0.0000E+00  0.0000E+00  0.0000E+00  0.0000E+00  0.0000E+00  0.0000E+00  0.0000E+00  0.0000E+00  0.0000E+00  0.0000E+00  0.0000E+00  0.1810E+06  0.7070E+05  0.0000E+00  0.0000E+00
REACH    2        0     3  0.4258E+05  0.6527E+03  0.6523E+03  0.4677E+00  0.0000E+00  0.7651E+06  0.4821E+06  0.1910E+03  0.1259E+08  0.1235E+08  0.4734E+07  0.4599E+07  0.1522E+07  0.1521E+07  0.2059E+07  0.2210E+07  0.2500E+04  0.7548E+04  0.1136E+07  0.1247E+07  0.0000E+00  0.0000E+00  0.0000E+00  0.0000E+00  0.1927E+07  0.5711E+07  0.0000E+00  0.0000E+00  0.0000E+00  0.0000E+00  0.0000E+00  0.0000E+00  0.0000E+00  0.0000E+00  0.0000E+00  0.0000E+00  0.0000E+00  0.0000E+00  0.0000E+00  0.0000E+00  0.0000E+00  0.0000E+00  0.0000E+00  0.1609E+08  0.5847E+07  0.0000E+00  0.0000E+00
REACH    3        0     3  0.4221E+05  0.6512E+03  0.6507E+03  0.5316E+00  0.0000E+00  0.3571E+07  0.3961E+06  0.1572E+03  0.1288E+08  0.1254E+08  0.4905E+07  0.4710E+07  0.1517E+07  0.1516E+07  0.1817E+07  0.2059E+07  0.8172E+03  0.2500E+04  0.9737E+06  0.1136E+07  0.0000E+00  0.0000E+00  0.0000E+00  0.0000E+00  0.6401E+06  0.1927E+07  0.0000E+00  0.0000E+00  0.0000E+00  0.0000E+00  0.0000E+00  0.0000E+00  0.0000E+00  0.0000E+00  0.0000E+00  0.0000E+00  0.0000E+00  0.0000E+00  0.0000E+00  0.0000E+00  0.0000E+00  0.0000E+00  0.0000E+00  0.1611E+08  0.5846E+07  0.0000E+00  0.0000E+00
REACH    4        0     3  0.2154E+04  0.1142E+02  0.1132E+02  0.9812E-01  0.0000E+00  0.8311E+06  0.7848E+04  0.5874E+02  0.2933E+06  0.2838E+06  0.1291E+06  0.1229E+06  0.3435E+05  0.3406E+05  0.2729E+03  0.8593E+03  0.0000E+00  0.4697E-01  0.4743E+03  0.1445E+04  0.0000E+00  0.0000E+00  0.0000E+00  0.0000E+00  0.4985E+02  0.2664E+03  0.0000E+00  0.0000E+00  0.0000E+00  0.0000E+00  0.0000E+00  0.0000E+00  0.0000E+00  0.0000E+00  0.0000E+00  0.0000E+00  0.0000E+00  0.0000E+00  0.0000E+00  0.0000E+00  0.0000E+00  0.0000E+00  0.0000E+00  0.3187E+06  0.1244E+06  0.0000E+00  0.0000E+00
REACH    5        0     3  0.3777E+04  0.2469E+02  0.2437E+02  0.3092E+00  0.0000E+00  0.1078E+07  0.1067E+07  0.3902E+04  0.6856E+06  0.6269E+06  0.2838E+06  0.2481E+06  0.9584E+05  0.9440E+05  0.0000E+00  0.1686E+05  0.0000E+00  0.1148E+01  0.5974E+03  0.2353E+04  0.0000E+00  0.0000E+00  0.0000E+00  0.0000E+00  0.0000E+00  0.5327E+03  0.0000E+00  0.0000E+00  0.0000E+00  0.0000E+00  0.0000E+00  0.0000E+00  0.0000E+00  0.0000E+00  0.0000E+00  0.0000E+00  0.0000E+00  0.0000E+00  0.0000E+00  0.0000E+00  0.0000E+00  0.0000E+00  0.0000E+00  0.7382E+06  0.2505E+06  0.0000E+00  0.0000E+00
REACH    6        0     3  0.1825E+04  0.1464E+02  0.1449E+02  0.1437E+00  0.0000E+00  0.1018E+07  0.1017E+07  0.6552E+04  0.3583E+06  0.3341E+06  0.1525E+06  0.1375E+06  0.5629E+05  0.5561E+05  0.0000E+00  0.8841E+04  0.0000E+00  0.3210E-01  0.2873E+03  0.9657E+03  0.0000E+00  0.0000E+00  0.0000E+00  0.0000E+00  0.0000E+00  0.1322E+03  0.0000E+00  0.0000E+00  0.0000E+00  0.0000E+00  0.0000E+00  0.0000E+00  0.0000E+00  0.0000E+00  0.0000E+00  0.0000E+00  0.0000E+00  0.0000E+00  0.0000E+00  0.0000E+00  0.0000E+00  0.0000E+00  0.0000E+00  0.3986E+06  0.1385E+06  0.0000E+00  0.0000E+00
REACH    7        0     3  0.3299E+05  0.5916E+03  0.5911E+03  0.4794E+00  0.0000E+00  0.2792E+07  0.3161E+06  0.1377E+03  0.1182E+08  0.1145E+08  0.4515E+07  0.4303E+07  0.1310E+07  0.1308E+07  0.1516E+07  0.1790E+07  0.2628E+03  0.8160E+03  0.7919E+06  0.9688E+06  0.0000E+00  0.0000E+00  0.0000E+00  0.0000E+00  0.2080E+06  0.6391E+06  0.0000E+00  0.0000E+00  0.0000E+00  0.0000E+00  0.0000E+00  0.0000E+00  0.0000E+00  0.0000E+00  0.0000E+00  0.0000E+00  0.0000E+00  0.0000E+00  0.0000E+00  0.0000E+00  0.0000E+00  0.0000E+00  0.0000E+00  0.1455E+08  0.5272E+07  0.0000E+00  0.0000E+00
REACH    8        0     3  0.2678E+05  0.5329E+03  0.5319E+03  0.9555E+00  0.0000E+00  0.1372E+07  0.3975E+06  0.2169E+03  0.1064E+08  0.1007E+08  0.4059E+07  0.3738E+07  0.1208E+07  0.1203E+07  0.1059E+07  0.1478E+07  0.7580E+02  0.2558E+03  0.5197E+06  0.7855E+06  0.0000E+00  0.0000E+00  0.0000E+00  0.0000E+00  0.6147E+05  0.2014E+06  0.0000E+00  0.0000E+00  0.0000E+00  0.0000E+00  0.0000E+00  0.0000E+00  0.0000E+00  0.0000E+00  0.0000E+00  0.0000E+00  0.0000E+00  0.0000E+00  0.0000E+00  0.0000E+00  0.0000E+00  0.0000E+00  0.0000E+00  0.1275E+08  0.4523E+07  0.0000E+00  0.0000E+00
REACH    9        0     3  0.4742E+04  0.4860E+02  0.4819E+02  0.4376E+00  0.0000E+00  0.1984E+07  0.1984E+07  0.1835E+04  0.1614E+07  0.1500E+07  0.7491E+06  0.6695E+06  0.1010E+06  0.9975E+05  0.0000E+00  0.3859E+05  0.0000E+00  0.7009E+01  0.1631E+04  0.6164E+04  0.0000E+00  0.0000E+00  0.0000E+00  0.0000E+00  0.0000E+00  0.6633E+04  0.0000E+00  0.0000E+00  0.0000E+00  0.0000E+00  0.0000E+00  0.0000E+00  0.0000E+00  0.0000E+00  0.0000E+00  0.0000E+00  0.0000E+00  0.0000E+00  0.0000E+00  0.0000E+00  0.0000E+00  0.0000E+00  0.0000E+00  0.1639E+07  0.6756E+06  0.0000E+00  0.0000E+00
REACH   10        0     3  0.2329E+05  0.5162E+03  0.5154E+03  0.6775E+00  0.0000E+00  0.4312E+07  0.3258E+06  0.1690E+03  0.1077E+08  0.1018E+08  0.4225E+07  0.3881E+07  0.1133E+07  0.1130E+07  0.6176E+06  0.1059E+07  0.2291E+02  0.7580E+02  0.2329E+06  0.5193E+06  0.0000E+00  0.0000E+00  0.0000E+00  0.0000E+00  0.1906E+05  0.6147E+05  0.0000E+00  0.0000E+00  0.0000E+00  0.0000E+00  0.0000E+00  0.0000E+00  0.0000E+00  0.0000E+00  0.0000E+00  0.0000E+00  0.0000E+00  0.0000E+00  0.0000E+00  0.0000E+00  0.0000E+00  0.0000E+00  0.0000E+00  0.1237E+08  0.4401E+07  0.0000E+00  0.0000E+00
REACH   11        0     3  0.2406E+04  0.1163E+02  0.1154E+02  0.9525E-01  0.0000E+00  0.7225E+06  0.7225E+06  0.1117E+04  0.2101E+06  0.2044E+06  0.8892E+05  0.8537E+05  0.2011E+05  0.2008E+05  0.0000E+00  0.1933E+04  0.0000E+00  0.1967E+00  0.1439E+03  0.4403E+03  0.0000E+00  0.0000E+00  0.0000E+00  0.0000E+00  0.0000E+00  0.5415E+03  0.0000E+00  0.0000E+00  0.0000E+00  0.0000E+00  0.0000E+00  0.0000E+00  0.0000E+00  0.0000E+00  0.0000E+00  0.0000E+00  0.0000E+00  0.0000E+00  0.0000E+00  0.0000E+00  0.0000E+00  0.0000E+00  0.0000E+00  0.2265E+06  0.8581E+05  0.0000E+00  0.0000E+00
REACH   12        0     3  0.1977E+04  0.6141E+02  0.6139E+02  0.2431E-01  0.0000E+00  0.1732E+07  0.1732E+07  0.6203E+04  0.1662E+07  0.1633E+07  0.6321E+06  0.6152E+06  0.1346E+06  0.1348E+06  0.0000E+00  0.2110E+05  0.0000E+00  0.0000E+00  0.1544E+04  0.4636E+04  0.0000E+00  0.0000E+00  0.0000E+00  0.0000E+00  0.0000E+00  0.4933E+03  0.0000E+00  0.0000E+00  0.0000E+00  0.0000E+00  0.0000E+00  0.0000E+00  0.0000E+00  0.0000E+00  0.0000E+00  0.0000E+00  0.0000E+00  0.0000E+00  0.0000E+00  0.0000E+00  0.0000E+00  0.0000E+00  0.0000E+00  0.1789E+07  0.6198E+06  0.0000E+00  0.0000E+00
REACH   13        0     3  0.1757E+05  0.4295E+03  0.4291E+03  0.3449E+00  0.0000E+00  0.5527E+07  0.2288E+06  0.1518E+03  0.8622E+07  0.8248E+07  0.3465E+07  0.3240E+07  0.9368E+06  0.9352E+06  0.3149E+06  0.5945E+06  0.7399E+01  0.2271E+02  0.7995E+05  0.2275E+06  0.0000E+00  0.0000E+00  0.0000E+00  0.0000E+00  0.5866E+04  0.1802E+05  0.0000E+00  0.0000E+00  0.0000E+00  0.0000E+00  0.0000E+00  0.0000E+00  0.0000E+00  0.0000E+00  0.0000E+00  0.0000E+00  0.0000E+00  0.0000E+00  0.0000E+00  0.0000E+00  0.0000E+00  0.0000E+00  0.0000E+00  0.9778E+07  0.3468E+07  0.0000E+00  0.0000E+00
REACH   14        0     3  0.5274E+04  0.1613E+03  0.1607E+03  0.3921E+00  0.0000E+00  0.5244E+07  0.5070E+07  0.7369E+04  0.3757E+07  0.3339E+07  0.1566E+07  0.1306E+07  0.3639E+06  0.3612E+06  0.0000E+00  0.1068E+06  0.0000E+00  0.5827E+00  0.3860E+04  0.1718E+05  0.0000E+00  0.0000E+00  0.0000E+00  0.0000E+00  0.0000E+00  0.1329E+04  0.0000E+00  0.0000E+00  0.0000E+00  0.0000E+00  0.0000E+00  0.0000E+00  0.0000E+00  0.0000E+00  0.0000E+00  0.0000E+00  0.0000E+00  0.0000E+00  0.0000E+00  0.0000E+00  0.0000E+00  0.0000E+00  0.0000E+00  0.3807E+07  0.1324E+07  0.0000E+00  0.0000E+00
REACH   15        0     3  0.3525E+04  0.6147E+02  0.6137E+02  0.9593E-01  0.0000E+00  0.1274E+07  0.2350E+05  0.1205E+03  0.1333E+07  0.1268E+07  0.5416E+06  0.5025E+06  0.1569E+06  0.1566E+06  0.2149E+05  0.6391E+05  0.5624E-03  0.2978E+01  0.5674E+04  0.1726E+05  0.0000E+00  0.0000E+00  0.0000E+00  0.0000E+00  0.4776E+03  0.1458E+04  0.0000E+00  0.0000E+00  0.0000E+00  0.0000E+00  0.0000E+00  0.0000E+00  0.0000E+00  0.0000E+00  0.0000E+00  0.0000E+00  0.0000E+00  0.0000E+00  0.0000E+00  0.0000E+00  0.0000E+00  0.0000E+00  0.0000E+00  0.1488E+07  0.5197E+06  0.0000E+00  0.0000E+00
REACH   16        0     3  0.1385E+04  0.6707E+01  0.6679E+01  0.2859E-01  0.0000E+00  0.1805E+06  0.1805E+06  0.4665E+03  0.1055E+06  0.1037E+06  0.4797E+05  0.4677E+05  0.1932E+05  0.1928E+05  0.0000E+00  0.5782E+03  0.0000E+00  0.5624E-03  0.1568E+03  0.4720E+03  0.0000E+00  0.0000E+00  0.0000E+00  0.0000E+00  0.0000E+00  0.5366E+02  0.0000E+00  0.0000E+00  0.0000E+00  0.0000E+00  0.0000E+00  0.0000E+00  0.0000E+00  0.0000E+00  0.0000E+00  0.0000E+00  0.0000E+00  0.0000E+00  0.0000E+00  0.0000E+00  0.0000E+00  0.0000E+00  0.0000E+00  0.1235E+06  0.4724E+05  0.0000E+00  0.0000E+00
REACH   17        0     3  0.1718E+04  0.5280E+02  0.5276E+02  0.4665E-01  0.0000E+00  0.1007E+07  0.1007E+07  0.4529E+04  0.1220E+07  0.1191E+07  0.4970E+06  0.4789E+06  0.1333E+06  0.1333E+06  0.0000E+00  0.2091E+05  0.0000E+00  0.0000E+00  0.1720E+04  0.5160E+04  0.0000E+00  0.0000E+00  0.0000E+00  0.0000E+00  0.0000E+00  0.4240E+03  0.0000E+00  0.0000E+00  0.0000E+00  0.0000E+00  0.0000E+00  0.0000E+00  0.0000E+00  0.0000E+00  0.0000E+00  0.0000E+00  0.0000E+00  0.0000E+00  0.0000E+00  0.0000E+00  0.0000E+00  0.0000E+00  0.0000E+00  0.1345E+07  0.4841E+06  0.0000E+00  0.0000E+00
REACH   18        0     3  0.7129E+04  0.2000E+03  0.1996E+03  0.3221E+00  0.0000E+00  0.4289E+07  0.1432E+06  0.2861E+03  0.4122E+07  0.3864E+07  0.1763E+07  0.1596E+07  0.3999E+06  0.3981E+06  0.4359E+05  0.1442E+06  0.3477E-01  0.3839E+01  0.1408E+05  0.4536E+05  0.0000E+00  0.0000E+00  0.0000E+00  0.0000E+00  0.9636E+03  0.3080E+04  0.0000E+00  0.0000E+00  0.0000E+00  0.0000E+00  0.0000E+00  0.0000E+00  0.0000E+00  0.0000E+00  0.0000E+00  0.0000E+00  0.0000E+00  0.0000E+00  0.0000E+00  0.0000E+00  0.0000E+00  0.0000E+00  0.0000E+00  0.4406E+07  0.1641E+07  0.0000E+00  0.0000E+00
REACH   19        0     3  0.2538E+04  0.6901E+02  0.6896E+02  0.5644E-01  0.0000E+00  0.1481E+07  0.1481E+07  0.4110E+04  0.1570E+07  0.1539E+07  0.6454E+06  0.6263E+06  0.1344E+06  0.1342E+06  0.0000E+00  0.2029E+05  0.0000E+00  0.3356E-02  0.2226E+04  0.6687E+04  0.0000E+00  0.0000E+00  0.0000E+00  0.0000E+00  0.0000E+00  0.5541E+03  0.0000E+00  0.0000E+00  0.0000E+00  0.0000E+00  0.0000E+00  0.0000E+00  0.0000E+00  0.0000E+00  0.0000E+00  0.0000E+00  0.0000E+00  0.0000E+00  0.0000E+00  0.0000E+00  0.0000E+00  0.0000E+00  0.0000E+00  0.1694E+07  0.6329E+06  0.0000E+00  0.0000E+00
REACH   20        0     3  0.1982E+04  0.5099E+02  0.5093E+02  0.6816E-01  0.0000E+00  0.1319E+07  0.1318E+07  0.5095E+04  0.1227E+07  0.1186E+07  0.5014E+06  0.4766E+06  0.9348E+05  0.9320E+05  0.0000E+00  0.2330E+05  0.0000E+00  0.3141E-01  0.1660E+04  0.5069E+04  0.0000E+00  0.0000E+00  0.0000E+00  0.0000E+00  0.0000E+00  0.4096E+03  0.0000E+00  0.0000E+00  0.0000E+00  0.0000E+00  0.0000E+00  0.0000E+00  0.0000E+00  0.0000E+00  0.0000E+00  0.0000E+00  0.0000E+00  0.0000E+00  0.0000E+00  0.0000E+00  0.0000E+00  0.0000E+00  0.0000E+00  0.1302E+07  0.4817E+06  0.0000E+00  0.0000E+00
REACH    1        0     4  0.1236E+04  0.1608E+02  0.1607E+02  0.7224E-02  0.0000E+00  0.1365E+07  0.1365E+07  0.6096E+04  0.5293E+06  0.5283E+06  0.2232E+06  0.2226E+06  0.4402E+05  0.4399E+05  0.0000E+00  0.6635E+03  0.0000E+00  0.0000E+00  0.4288E+03  0.8429E+03  0.0000E+00  0.0000E+00  0.0000E+00  0.0000E+00  0.0000E+00  0.1250E+03  0.0000E+00  0.0000E+00  0.0000E+00  0.0000E+00  0.0000E+00  0.0000E+00  0.0000E+00  0.0000E+00  0.0000E+00  0.0000E+00  0.0000E+00  0.0000E+00  0.0000E+00  0.0000E+00  0.0000E+00  0.0000E+00  0.0000E+00  0.5730E+06  0.2235E+06  0.0000E+00  0.0000E+00
REACH    2        0     4  0.4258E+05  0.6010E+03  0.6002E+03  0.7348E+00  0.0000E+00  0.1610E+07  0.5335E+06  0.1568E+03  0.1258E+08  0.1236E+08  0.4935E+07  0.4807E+07  0.1794E+07  0.1793E+07  0.1314E+07  0.1443E+07  0.1412E+05  0.2841E+05  0.8149E+06  0.9196E+06  0.0000E+00  0.0000E+00  0.0000E+00  0.0000E+00  0.5166E+07  0.7609E+07  0.0000E+00  0.0000E+00  0.0000E+00  0.0000E+00  0.0000E+00  0.0000E+00  0.0000E+00  0.0000E+00  0.0000E+00  0.0000E+00  0.0000E+00  0.0000E+00  0.0000E+00  0.0000E+00  0.0000E+00  0.0000E+00  0.0000E+00  0.1562E+08  0.5727E+07  0.0000E+00  0.0000E+00
REACH    3        0     4  0.4221E+05  0.5965E+03  0.5958E+03  0.8358E+00  0.0000E+00  0.1004E+08  0.4328E+06  0.1282E+03  0.1272E+08  0.1241E+08  0.5050E+07  0.4865E+07  0.1781E+07  0.1779E+07  0.1105E+07  0.1314E+07  0.5059E+04  0.1412E+05  0.6614E+06  0.8148E+06  0.0000E+00  0.0000E+00  0.0000E+00  0.0000E+00  0.2282E+07  0.5166E+07  0.0000E+00  0.0000E+00  0.0000E+00  0.0000E+00  0.0000E+00  0.0000E+00  0.0000E+00  0.0000E+00  0.0000E+00  0.0000E+00  0.0000E+00  0.0000E+00  0.0000E+00  0.0000E+00  0.0000E+00  0.0000E+00  0.0000E+00  0.1552E+08  0.5680E+07  0.0000E+00  0.0000E+00
REACH    4        0     4  0.2154E+04  0.2903E+02  0.2888E+02  0.1545E+00  0.0000E+00  0.2719E+07  0.2903E+05  0.1761E+03  0.9314E+06  0.9088E+06  0.3974E+06  0.3834E+06  0.8053E+05  0.7978E+05  0.6635E+03  0.2138E+04  0.0000E+00  0.3543E-01  0.1137E+04  0.3464E+04  0.0000E+00  0.0000E+00  0.0000E+00  0.0000E+00  0.1250E+03  0.3864E+03  0.0000E+00  0.0000E+00  0.0000E+00  0.0000E+00  0.0000E+00  0.0000E+00  0.0000E+00  0.0000E+00  0.0000E+00  0.0000E+00  0.0000E+00  0.0000E+00  0.0000E+00  0.0000E+00  0.0000E+00  0.0000E+00  0.0000E+00  0.9908E+06  0.3869E+06  0.0000E+00  0.0000E+00
REACH    5        0     4  0.3777E+04  0.5592E+02  0.5549E+02  0.4861E+00  0.0000E+00  0.3414E+07  0.3413E+07  0.5208E+04  0.1793E+07  0.1683E+07  0.7391E+06  0.6724E+06  0.2059E+06  0.2030E+06  0.0000E+00  0.3733E+05  0.0000E+00  0.4568E+00  0.1277E+04  0.4453E+04  0.0000E+00  0.0000E+00  0.0000E+00  0.0000E+00  0.0000E+00  0.4416E+03  0.0000E+00  0.0000E+00  0.0000E+00  0.0000E+00  0.0000E+00  0.0000E+00  0.0000E+00  0.0000E+00  0.0000E+00  0.0000E+00  0.0000E+00  0.0000E+00  0.0000E+00  0.0000E+00  0.0000E+00  0.0000E+00  0.0000E+00  0.1924E+07  0.6768E+06  0.0000E+00  0.0000E+00
REACH    6        0     4  0.1825E+04  0.3050E+02  0.3030E+02  0.2256E+00  0.0000E+00  0.2741E+07  0.2740E+07  0.8223E+04  0.7687E+06  0.7282E+06  0.3299E+06  0.3045E+06  0.1164E+06  0.1151E+06  0.0000E+00  0.1413E+05  0.0000E+00  0.2939E-01  0.5195E+03  0.1675E+04  0.0000E+00  0.0000E+00  0.0000E+00  0.0000E+00  0.0000E+00  0.2369E+03  0.0000E+00  0.0000E+00  0.0000E+00  0.0000E+00  0.0000E+00  0.0000E+00  0.0000E+00  0.0000E+00  0.0000E+00  0.0000E+00  0.0000E+00  0.0000E+00  0.0000E+00  0.0000E+00  0.0000E+00  0.0000E+00  0.0000E+00  0.8574E+06  0.3062E+06  0.0000E+00  0.0000E+00
REACH    7        0     4  0.3299E+05  0.4596E+03  0.4591E+03  0.7507E+00  0.0000E+00  0.4648E+07  0.2722E+06  0.1081E+03  0.9254E+07  0.8962E+07  0.3644E+07  0.3473E+07  0.1327E+07  0.1326E+07  0.8472E+06  0.1051E+07  0.1867E+04  0.5058E+04  0.5094E+06  0.6515E+06  0.0000E+00  0.0000E+00  0.0000E+00  0.0000E+00  0.7763E+06  0.2281E+07  0.0000E+00  0.0000E+00  0.0000E+00  0.0000E+00  0.0000E+00  0.0000E+00  0.0000E+00  0.0000E+00  0.0000E+00  0.0000E+00  0.0000E+00  0.0000E+00  0.0000E+00  0.0000E+00  0.0000E+00  0.0000E+00  0.0000E+00  0.1134E+08  0.4124E+07  0.0000E+00  0.0000E+00
REACH    8        0     4  0.2678E+05  0.3849E+03  0.3839E+03  0.1491E+01  0.0000E+00  0.4308E+07  0.3464E+06  0.2712E+03  0.7347E+07  0.6941E+07  0.2855E+07  0.2622E+07  0.1094E+07  0.1092E+07  0.5169E+06  0.8001E+06  0.5219E+03  0.1864E+04  0.3155E+06  0.5034E+06  0.0000E+00  0.0000E+00  0.0000E+00  0.0000E+00  0.2468E+06  0.7682E+06  0.0000E+00  0.0000E+00  0.0000E+00  0.0000E+00  0.0000E+00  0.0000E+00  0.0000E+00  0.0000E+00  0.0000E+00  0.0000E+00  0.0000E+00  0.0000E+00  0.0000E+00  0.0000E+00  0.0000E+00  0.0000E+00  0.0000E+00  0.8835E+07  0.3126E+07  0.0000E+00  0.0000E+00
REACH    9        0     4  0.4742E+04  0.5355E+02  0.5288E+02  0.7162E+00  0.0000E+00  0.3286E+07  0.3286E+07  0.3928E+04  0.1946E+07  0.1795E+07  0.9052E+06  0.8000E+06  0.2273E+06  0.2223E+06  0.0000E+00  0.4715E+05  0.0000E+00  0.3270E+01  0.1573E+04  0.5552E+04  0.0000E+00  0.0000E+00  0.0000E+00  0.0000E+00  0.0000E+00  0.8069E+04  0.0000E+00  0.0000E+00  0.0000E+00  0.0000E+00  0.0000E+00  0.0000E+00  0.0000E+00  0.0000E+00  0.0000E+00  0.0000E+00  0.0000E+00  0.0000E+00  0.0000E+00  0.0000E+00  0.0000E+00  0.0000E+00  0.0000E+00  0.2065E+07  0.8056E+06  0.0000E+00  0.0000E+00
REACH   10        0     4  0.2329E+05  0.3420E+03  0.3414E+03  0.1105E+01  0.0000E+00  0.5420E+07  0.2285E+06  0.1295E+03  0.6229E+07  0.5871E+07  0.2496E+07  0.2281E+07  0.9506E+06  0.9502E+06  0.2717E+06  0.5169E+06  0.1813E+03  0.5219E+03  0.1392E+06  0.3145E+06  0.0000E+00  0.0000E+00  0.0000E+00  0.0000E+00  0.8928E+05  0.2468E+06  0.0000E+00  0.0000E+00  0.0000E+00  0.0000E+00  0.0000E+00  0.0000E+00  0.0000E+00  0.0000E+00  0.0000E+00  0.0000E+00  0.0000E+00  0.0000E+00  0.0000E+00  0.0000E+00  0.0000E+00  0.0000E+00  0.0000E+00  0.7338E+07  0.2596E+07  0.0000E+00  0.0000E+00
REACH   11        0     4  0.2406E+04  0.3499E+02  0.3483E+02  0.1595E+00  0.0000E+00  0.1607E+07  0.1607E+07  0.3807E+04  0.5140E+06  0.4972E+06  0.2194E+06  0.2088E+06  0.6599E+05  0.6582E+05  0.0000E+00  0.9621E+04  0.0000E+00  0.2691E+00  0.4270E+03  0.1286E+04  0.0000E+00  0.0000E+00  0.0000E+00  0.0000E+00  0.0000E+00  0.2050E+04  0.0000E+00  0.0000E+00  0.0000E+00  0.0000E+00  0.0000E+00  0.0000E+00  0.0000E+00  0.0000E+00  0.0000E+00  0.0000E+00  0.0000E+00  0.0000E+00  0.0000E+00  0.0000E+00  0.0000E+00  0.0000E+00  0.0000E+00  0.5726E+06  0.2101E+06  0.0000E+00  0.0000E+00
REACH   12        0     4  0.1977E+04  0.3230E+02  0.3226E+02  0.4270E-01  0.0000E+00  0.1186E+07  0.1186E+07  0.2767E+04  0.7674E+06  0.7539E+06  0.2952E+06  0.2874E+06  0.8956E+05  0.8940E+05  0.0000E+00  0.8734E+04  0.0000E+00  0.0000E+00  0.6796E+03  0.2039E+04  0.0000E+00  0.0000E+00  0.0000E+00  0.0000E+00  0.0000E+00  0.2508E+03  0.0000E+00  0.0000E+00  0.0000E+00  0.0000E+00  0.0000E+00  0.0000E+00  0.0000E+00  0.0000E+00  0.0000E+00  0.0000E+00  0.0000E+00  0.0000E+00  0.0000E+00  0.0000E+00  0.0000E+00  0.0000E+00  0.0000E+00  0.8521E+06  0.2894E+06  0.0000E+00  0.0000E+00
REACH   13        0     4  0.1757E+05  0.2589E+03  0.2586E+03  0.5749E+00  0.0000E+00  0.3529E+07  0.1449E+06  0.1091E+03  0.4358E+07  0.4152E+07  0.1780E+07  0.1653E+07  0.7164E+06  0.7165E+06  0.1333E+06  0.2534E+06  0.3879E+02  0.1810E+03  0.5024E+05  0.1356E+06  0.0000E+00  0.0000E+00  0.0000E+00  0.0000E+00  0.3303E+05  0.8698E+05  0.0000E+00  0.0000E+00  0.0000E+00  0.0000E+00  0.0000E+00  0.0000E+00  0.0000E+00  0.0000E+00  0.0000E+00  0.0000E+00  0.0000E+00  0.0000E+00  0.0000E+00  0.0000E+00  0.0000E+00  0.0000E+00  0.0000E+00  0.5122E+07  0.1789E+07  0.0000E+00  0.0000E+00
REACH   14        0     4  0.5274E+04  0.8018E+02  0.7995E+02  0.6890E+00  0.0000E+00  0.2781E+07  0.2731E+07  0.3270E+04  0.1415E+07  0.1258E+07  0.5979E+06  0.4989E+06  0.2062E+06  0.2072E+06  0.0000E+00  0.5372E+05  0.0000E+00  0.2659E+02  0.1560E+04  0.1271E+05  0.0000E+00  0.0000E+00  0.0000E+00  0.0000E+00  0.0000E+00  0.1894E+05  0.0000E+00  0.0000E+00  0.0000E+00  0.0000E+00  0.0000E+00  0.0000E+00  0.0000E+00  0.0000E+00  0.0000E+00  0.0000E+00  0.0000E+00  0.0000E+00  0.0000E+00  0.0000E+00  0.0000E+00  0.0000E+00  0.0000E+00  0.1519E+07  0.5116E+06  0.0000E+00  0.0000E+00
REACH   15        0     4  0.3525E+04  0.5272E+02  0.5261E+02  0.1596E+00  0.0000E+00  0.1150E+07  0.2095E+05  0.9732E+02  0.8797E+06  0.8368E+06  0.3729E+06  0.3456E+06  0.1862E+06  0.1860E+06  0.1138E+05  0.3418E+05  0.2963E-02  0.1648E+01  0.3918E+04  0.1203E+05  0.0000E+00  0.0000E+00  0.0000E+00  0.0000E+00  0.3735E+03  0.1207E+04  0.0000E+00  0.0000E+00  0.0000E+00  0.0000E+00  0.0000E+00  0.0000E+00  0.0000E+00  0.0000E+00  0.0000E+00  0.0000E+00  0.0000E+00  0.0000E+00  0.0000E+00  0.0000E+00  0.0000E+00  0.0000E+00  0.0000E+00  0.1057E+07  0.3576E+06  0.0000E+00  0.0000E+00
REACH   16        0     4  0.1385E+04  0.2131E+02  0.2126E+02  0.4768E-01  0.0000E+00  0.4391E+06  0.4391E+06  0.1678E+04  0.2956E+06  0.2896E+06  0.1367E+06  0.1326E+06  0.1061E+06  0.1060E+06  0.0000E+00  0.3475E+04  0.0000E+00  0.1969E-02  0.5084E+03  0.1526E+04  0.0000E+00  0.0000E+00  0.0000E+00  0.0000E+00  0.0000E+00  0.1653E+03  0.0000E+00  0.0000E+00  0.0000E+00  0.0000E+00  0.0000E+00  0.0000E+00  0.0000E+00  0.0000E+00  0.0000E+00  0.0000E+00  0.0000E+00  0.0000E+00  0.0000E+00  0.0000E+00  0.0000E+00  0.0000E+00  0.0000E+00  0.3990E+06  0.1341E+06  0.0000E+00  0.0000E+00
REACH   17        0     4  0.1718E+04  0.2685E+02  0.2677E+02  0.8160E-01  0.0000E+00  0.5664E+06  0.5664E+06  0.2121E+04  0.5303E+06  0.5166E+06  0.2179E+06  0.2096E+06  0.6472E+05  0.6449E+05  0.0000E+00  0.7904E+04  0.0000E+00  0.9945E-03  0.7627E+03  0.2296E+04  0.0000E+00  0.0000E+00  0.0000E+00  0.0000E+00  0.0000E+00  0.2081E+03  0.0000E+00  0.0000E+00  0.0000E+00  0.0000E+00  0.0000E+00  0.0000E+00  0.0000E+00  0.0000E+00  0.0000E+00  0.0000E+00  0.0000E+00  0.0000E+00  0.0000E+00  0.0000E+00  0.0000E+00  0.0000E+00  0.0000E+00  0.5890E+06  0.2119E+06  0.0000E+00  0.0000E+00
REACH   18        0     4  0.7129E+04  0.1071E+03  0.1069E+03  0.5654E+00  0.0000E+00  0.2969E+07  0.8889E+05  0.2395E+03  0.2035E+07  0.1913E+07  0.8712E+06  0.7919E+06  0.2520E+06  0.2526E+06  0.1155E+05  0.4542E+05  0.2829E-01  0.1055E+02  0.6876E+04  0.2512E+05  0.0000E+00  0.0000E+00  0.0000E+00  0.0000E+00  0.5363E+03  0.1288E+05  0.0000E+00  0.0000E+00  0.0000E+00  0.0000E+00  0.0000E+00  0.0000E+00  0.0000E+00  0.0000E+00  0.0000E+00  0.0000E+00  0.0000E+00  0.0000E+00  0.0000E+00  0.0000E+00  0.0000E+00  0.0000E+00  0.0000E+00  0.2211E+07  0.8171E+06  0.0000E+00  0.0000E+00
REACH   19        0     4  0.2538E+04  0.3873E+02  0.3863E+02  0.9871E-01  0.0000E+00  0.1134E+07  0.1134E+07  0.2005E+04  0.8400E+06  0.8245E+06  0.3485E+06  0.3388E+06  0.8697E+05  0.8668E+05  0.0000E+00  0.5172E+04  0.0000E+00  0.6980E-02  0.1102E+04  0.3320E+04  0.0000E+00  0.0000E+00  0.0000E+00  0.0000E+00  0.0000E+00  0.3005E+03  0.0000E+00  0.0000E+00  0.0000E+00  0.0000E+00  0.0000E+00  0.0000E+00  0.0000E+00  0.0000E+00  0.0000E+00  0.0000E+00  0.0000E+00  0.0000E+00  0.0000E+00  0.0000E+00  0.0000E+00  0.0000E+00  0.0000E+00  0.9163E+06  0.3421E+06  0.0000E+00  0.0000E+00
REACH   20        0     4  0.1982E+04  0.2874E+02  0.2865E+02  0.1190E+00  0.0000E+00  0.1053E+07  0.1051E+07  0.2681E+04  0.6633E+06  0.6428E+06  0.2745E+06  0.2618E+06  0.6201E+05  0.6198E+05  0.0000E+00  0.6381E+04  0.0000E+00  0.2131E-01  0.8276E+03  0.2573E+04  0.0000E+00  0.0000E+00  0.0000E+00  0.0000E+00  0.0000E+00  0.2358E+03  0.0000E+00  0.0000E+00  0.0000E+00  0.0000E+00  0.0000E+00  0.0000E+00  0.0000E+00  0.0000E+00  0.0000E+00  0.0000E+00  0.0000E+00  0.0000E+00  0.0000E+00  0.0000E+00  0.0000E+00  0.0000E+00  0.0000E+00  0.7111E+06  0.2644E+06  0.0000E+00  0.0000E+00
REACH    1        0     5  0.1236E+04  0.1292E+01  0.1281E+01  0.1063E-01  0.0000E+00  0.4751E+05  0.4751E+05  0.2332E+04  0.1587E+05  0.1573E+05  0.7608E+04  0.7521E+04  0.1369E+05  0.1366E+05  0.0000E+00  0.7629E+02  0.0000E+00  0.0000E+00  0.2258E+02  0.5891E+02  0.0000E+00  0.0000E+00  0.0000E+00  0.0000E+00  0.0000E+00  0.1030E+02  0.0000E+00  0.0000E+00  0.0000E+00  0.0000E+00  0.0000E+00  0.0000E+00  0.0000E+00  0.0000E+00  0.0000E+00  0.0000E+00  0.0000E+00  0.0000E+00  0.0000E+00  0.0000E+00  0.0000E+00  0.0000E+00  0.0000E+00  0.2946E+05  0.7580E+04  0.0000E+00  0.0000E+00
REACH    2        0     5  0.4258E+05  0.1404E+03  0.1393E+03  0.1082E+01  0.0000E+00  0.9133E+05  0.6625E+05  0.8697E+02  0.1925E+07  0.1849E+07  0.7130E+06  0.6729E+06  0.9499E+06  0.9475E+06  0.4736E+06  0.4989E+06  0.2022E+05  0.2831E+05  0.2813E+06  0.3121E+06  0.0000E+00  0.0000E+00  0.0000E+00  0.0000E+00  0.1355E+07  0.1957E+07  0.0000E+00  0.0000E+00  0.0000E+00  0.0000E+00  0.0000E+00  0.0000E+00  0.0000E+00  0.0000E+00  0.0000E+00  0.0000E+00  0.0000E+00  0.0000E+00  0.0000E+00  0.0000E+00  0.0000E+00  0.0000E+00  0.0000E+00  0.3324E+07  0.9849E+06  0.0000E+00  0.0000E+00
REACH    3        0     5  0.4221E+05  0.1412E+03  0.1400E+03  0.1232E+01  0.0000E+00  0.3987E+06  0.5478E+05  0.7374E+02  0.2033E+07  0.1922E+07  0.7722E+06  0.7114E+06  0.9484E+06  0.9446E+06  0.4223E+06  0.4736E+06  0.1037E+05  0.2022E+05  0.2331E+06  0.2813E+06  0.0000E+00  0.0000E+00  0.0000E+00  0.0000E+00  0.1059E+07  0.1355E+07  0.0000E+00  0.0000E+00  0.0000E+00  0.0000E+00  0.0000E+00  0.0000E+00  0.0000E+00  0.0000E+00  0.0000E+00  0.0000E+00  0.0000E+00  0.0000E+00  0.0000E+00  0.0000E+00  0.0000E+00  0.0000E+00  0.0000E+00  0.3360E+07  0.9927E+06  0.0000E+00  0.0000E+00
REACH    4        0     5  0.2154E+04  0.2384E+01  0.2154E+01  0.2274E+00  0.0000E+00  0.9103E+05  0.8308E+03  0.2467E+02  0.2777E+05  0.2498E+05  0.1363E+05  0.1185E+05  0.2664E+05  0.2579E+05  0.7629E+02  0.2360E+03  0.0000E+00  0.1288E-01  0.7617E+02  0.2305E+03  0.0000E+00  0.0000E+00  0.0000E+00  0.0000E+00  0.1030E+02  0.3364E+02  0.0000E+00  0.0000E+00  0.0000E+00  0.0000E+00  0.0000E+00  0.0000E+00  0.0000E+00  0.0000E+00  0.0000E+00  0.0000E+00  0.0000E+00  0.0000E+00  0.0000E+00  0.0000E+00  0.0000E+00  0.0000E+00  0.0000E+00  0.5100E+05  0.1208E+05  0.0000E+00  0.0000E+00
REACH    5        0     5  0.3777E+04  0.6379E+01  0.5646E+01  0.7147E+00  0.0000E+00  0.1356E+06  0.1267E+06  0.1692E+04  0.1021E+06  0.8011E+05  0.4393E+05  0.3093E+05  0.7663E+05  0.7244E+05  0.0000E+00  0.6048E+04  0.0000E+00  0.4423E+00  0.1112E+03  0.5967E+03  0.0000E+00  0.0000E+00  0.0000E+00  0.0000E+00  0.0000E+00  0.7757E+02  0.0000E+00  0.0000E+00  0.0000E+00  0.0000E+00  0.0000E+00  0.0000E+00  0.0000E+00  0.0000E+00  0.0000E+00  0.0000E+00  0.0000E+00  0.0000E+00  0.0000E+00  0.0000E+00  0.0000E+00  0.0000E+00  0.0000E+00  0.1586E+06  0.3153E+05  0.0000E+00  0.0000E+00
REACH    6        0     5  0.1825E+04  0.4093E+01  0.3749E+01  0.3311E+00  0.0000E+00  0.9817E+05  0.9672E+05  0.2100E+04  0.6266E+05  0.5229E+05  0.2716E+05  0.2093E+05  0.4815E+05  0.4612E+05  0.0000E+00  0.3417E+04  0.0000E+00  0.5489E-01  0.6399E+02  0.2615E+03  0.0000E+00  0.0000E+00  0.0000E+00  0.0000E+00  0.0000E+00  0.3235E+02  0.0000E+00  0.0000E+00  0.0000E+00  0.0000E+00  0.0000E+00  0.0000E+00  0.0000E+00  0.0000E+00  0.0000E+00  0.0000E+00  0.0000E+00  0.0000E+00  0.0000E+00  0.0000E+00  0.0000E+00  0.0000E+00  0.0000E+00  0.1018E+06  0.2119E+05  0.0000E+00  0.0000E+00
REACH    7        0     5  0.3299E+05  0.1284E+03  0.1272E+03  0.1103E+01  0.0000E+00  0.1462E+07  0.4388E+05  0.8202E+02  0.1984E+07  0.1853E+07  0.7704E+06  0.6965E+06  0.7816E+06  0.7766E+06  0.3407E+06  0.4126E+06  0.4337E+04  0.1037E+05  0.1722E+06  0.2320E+06  0.0000E+00  0.0000E+00  0.0000E+00  0.0000E+00  0.5081E+06  0.1059E+07  0.0000E+00  0.0000E+00  0.0000E+00  0.0000E+00  0.0000E+00  0.0000E+00  0.0000E+00  0.0000E+00  0.0000E+00  0.0000E+00  0.0000E+00  0.0000E+00  0.0000E+00  0.0000E+00  0.0000E+00  0.0000E+00  0.0000E+00  0.3052E+07  0.9285E+06  0.0000E+00  0.0000E+00
REACH    8        0     5  0.2678E+05  0.1004E+03  0.9793E+02  0.2188E+01  0.0000E+00  0.2096E+06  0.4619E+05  0.9257E+02  0.1240E+07  0.1084E+07  0.4584E+06  0.3758E+06  0.6123E+06  0.5962E+06  0.2141E+06  0.3001E+06  0.1087E+04  0.4336E+04  0.1046E+06  0.1679E+06  0.0000E+00  0.0000E+00  0.0000E+00  0.0000E+00  0.2383E+06  0.5078E+06  0.0000E+00  0.0000E+00  0.0000E+00  0.0000E+00  0.0000E+00  0.0000E+00  0.0000E+00  0.0000E+00  0.0000E+00  0.0000E+00  0.0000E+00  0.0000E+00  0.0000E+00  0.0000E+00  0.0000E+00  0.0000E+00  0.0000E+00  0.1984E+07  0.5438E+06  0.0000E+00  0.0000E+00
REACH    9        0     5  0.4742E+04  0.2865E+02  0.2757E+02  0.1088E+01  0.0000E+00  0.1393E+07  0.1383E+07  0.2370E+04  0.9932E+06  0.8627E+06  0.4696E+06  0.3786E+06  0.1908E+06  0.1837E+06  0.0000E+00  0.4062E+05  0.0000E+00  0.8436E+00  0.7909E+03  0.4243E+04  0.0000E+00  0.0000E+00  0.0000E+00  0.0000E+00  0.0000E+00  0.3015E+03  0.0000E+00  0.0000E+00  0.0000E+00  0.0000E+00  0.0000E+00  0.0000E+00  0.0000E+00  0.0000E+00  0.0000E+00  0.0000E+00  0.0000E+00  0.0000E+00  0.0000E+00  0.0000E+00  0.0000E+00  0.0000E+00  0.0000E+00  0.1087E+07  0.3828E+06  0.0000E+00  0.0000E+00
REACH   10        0     5  0.2329E+05  0.9970E+02  0.9775E+02  0.1675E+01  0.0000E+00  0.2247E+07  0.6527E+05  0.1878E+03  0.1369E+07  0.1191E+07  0.5408E+06  0.4385E+06  0.6042E+06  0.5908E+06  0.1108E+06  0.2141E+06  0.2390E+03  0.1087E+04  0.4308E+05  0.1046E+06  0.0000E+00  0.0000E+00  0.0000E+00  0.0000E+00  0.7719E+05  0.2383E+06  0.0000E+00  0.0000E+00  0.0000E+00  0.0000E+00  0.0000E+00  0.0000E+00  0.0000E+00  0.0000E+00  0.0000E+00  0.0000E+00  0.0000E+00  0.0000E+00  0.0000E+00  0.0000E+00  0.0000E+00  0.0000E+00  0.0000E+00  0.1997E+07  0.5431E+06  0.0000E+00  0.0000E+00
REACH   11        0     5  0.2406E+04  0.1822E+02  0.1801E+02  0.2213E+00  0.0000E+00  0.9994E+06  0.9994E+06  0.3518E+04  0.2332E+06  0.2225E+06  0.1003E+06  0.9347E+05  0.4267E+05  0.4205E+05  0.0000E+00  0.5325E+04  0.0000E+00  0.1448E-01  0.2038E+03  0.6097E+03  0.0000E+00  0.0000E+00  0.0000E+00  0.0000E+00  0.0000E+00  0.1487E+03  0.0000E+00  0.0000E+00  0.0000E+00  0.0000E+00  0.0000E+00  0.0000E+00  0.0000E+00  0.0000E+00  0.0000E+00  0.0000E+00  0.0000E+00  0.0000E+00  0.0000E+00  0.0000E+00  0.0000E+00  0.0000E+00  0.0000E+00  0.2699E+06  0.9408E+05  0.0000E+00  0.0000E+00
REACH   12        0     5  0.1977E+04  0.6630E+01  0.6559E+01  0.6699E-01  0.0000E+00  0.5394E+05  0.5394E+05  0.7385E+03  0.1574E+06  0.1506E+06  0.6082E+05  0.5693E+05  0.5985E+05  0.5941E+05  0.0000E+00  0.4170E+04  0.0000E+00  0.1671E-02  0.1351E+03  0.4053E+03  0.0000E+00  0.0000E+00  0.0000E+00  0.0000E+00  0.0000E+00  0.5270E+02  0.0000E+00  0.0000E+00  0.0000E+00  0.0000E+00  0.0000E+00  0.0000E+00  0.0000E+00  0.0000E+00  0.0000E+00  0.0000E+00  0.0000E+00  0.0000E+00  0.0000E+00  0.0000E+00  0.0000E+00  0.0000E+00  0.0000E+00  0.2142E+06  0.5733E+05  0.0000E+00  0.0000E+00
REACH   13        0     5  0.1757E+05  0.7021E+02  0.6937E+02  0.7958E+00  0.0000E+00  0.5305E+06  0.2764E+05  0.9847E+02  0.7777E+06  0.6894E+06  0.3137E+06  0.2613E+06  0.4945E+06  0.4863E+06  0.5297E+05  0.1013E+06  0.4301E+02  0.2390E+03  0.1719E+05  0.4195E+05  0.0000E+00  0.0000E+00  0.0000E+00  0.0000E+00  0.2045E+05  0.7699E+05  0.0000E+00  0.0000E+00  0.0000E+00  0.0000E+00  0.0000E+00  0.0000E+00  0.0000E+00  0.0000E+00  0.0000E+00  0.0000E+00  0.0000E+00  0.0000E+00  0.0000E+00  0.0000E+00  0.0000E+00  0.0000E+00  0.0000E+00  0.1277E+07  0.3032E+06  0.0000E+00  0.0000E+00
REACH   14        0     5  0.5274E+04  0.2383E+02  0.2266E+02  0.1081E+01  0.0000E+00  0.1373E+06  0.9688E+05  0.8188E+03  0.2739E+06  0.2060E+06  0.1188E+06  0.7697E+05  0.1517E+06  0.1439E+06  0.0000E+00  0.2037E+05  0.0000E+00  0.3410E+02  0.4436E+03  0.7491E+04  0.0000E+00  0.0000E+00  0.0000E+00  0.0000E+00  0.0000E+00  0.1448E+05  0.0000E+00  0.0000E+00  0.0000E+00  0.0000E+00  0.0000E+00  0.0000E+00  0.0000E+00  0.0000E+00  0.0000E+00  0.0000E+00  0.0000E+00  0.0000E+00  0.0000E+00  0.0000E+00  0.0000E+00  0.0000E+00  0.0000E+00  0.3703E+06  0.8446E+05  0.0000E+00  0.0000E+00
REACH   15        0     5  0.3525E+04  0.2096E+02  0.2074E+02  0.2205E+00  0.0000E+00  0.4035E+06  0.6848E+04  0.5999E+02  0.2691E+06  0.2456E+06  0.1178E+06  0.1027E+06  0.1621E+06  0.1595E+06  0.5064E+04  0.1594E+05  0.3359E-02  0.1387E+01  0.1410E+04  0.4499E+04  0.0000E+00  0.0000E+00  0.0000E+00  0.0000E+00  0.1483E+03  0.5528E+03  0.0000E+00  0.0000E+00  0.0000E+00  0.0000E+00  0.0000E+00  0.0000E+00  0.0000E+00  0.0000E+00  0.0000E+00  0.0000E+00  0.0000E+00  0.0000E+00  0.0000E+00  0.0000E+00  0.0000E+00  0.0000E+00  0.0000E+00  0.4210E+06  0.1072E+06  0.0000E+00  0.0000E+00
REACH   16        0     5  0.1385E+04  0.1198E+02  0.1192E+02  0.6593E-01  0.0000E+00  0.2861E+06  0.2861E+06  0.1555E+04  0.1493E+06  0.1451E+06  0.7022E+05  0.6724E+05  0.1119E+06  0.1108E+06  0.0000E+00  0.2113E+04  0.0000E+00  0.1423E-02  0.2746E+03  0.8129E+03  0.0000E+00  0.0000E+00  0.0000E+00  0.0000E+00  0.0000E+00  0.9578E+02  0.0000E+00  0.0000E+00  0.0000E+00  0.0000E+00  0.0000E+00  0.0000E+00  0.0000E+00  0.0000E+00  0.0000E+00  0.0000E+00  0.0000E+00  0.0000E+00  0.0000E+00  0.0000E+00  0.0000E+00  0.0000E+00  0.0000E+00  0.2580E+06  0.6805E+05  0.0000E+00  0.0000E+00
REACH   17        0     5  0.1718E+04  0.6675E+01  0.6540E+01  0.1277E+00  0.0000E+00  0.2355E+05  0.2355E+05  0.5530E+03  0.9125E+05  0.8566E+05  0.3769E+05  0.3436E+05  0.3983E+05  0.3923E+05  0.0000E+00  0.2951E+04  0.0000E+00  0.1936E-02  0.1800E+03  0.5479E+03  0.0000E+00  0.0000E+00  0.0000E+00  0.0000E+00  0.0000E+00  0.5255E+02  0.0000E+00  0.0000E+00  0.0000E+00  0.0000E+00  0.0000E+00  0.0000E+00  0.0000E+00  0.0000E+00  0.0000E+00  0.0000E+00  0.0000E+00  0.0000E+00  0.0000E+00  0.0000E+00  0.0000E+00  0.0000E+00  0.0000E+00  0.1278E+06  0.3490E+05  0.0000E+00  0.0000E+00
REACH   18        0     5  0.7129E+04  0.1819E+02  0.1726E+02  0.8860E+00  0.0000E+00  0.1163E+06  0.1490E+05  0.9878E+02  0.2032E+06  0.1662E+06  0.9186E+05  0.6787E+05  0.1527E+06  0.1465E+06  0.3591E+04  0.1667E+05  0.5871E-01  0.7520E+01  0.8383E+03  0.5022E+04  0.0000E+00  0.0000E+00  0.0000E+00  0.0000E+00  0.6030E+02  0.5421E+04  0.0000E+00  0.0000E+00  0.0000E+00  0.0000E+00  0.0000E+00  0.0000E+00  0.0000E+00  0.0000E+00  0.0000E+00  0.0000E+00  0.0000E+00  0.0000E+00  0.0000E+00  0.0000E+00  0.0000E+00  0.0000E+00  0.0000E+00  0.3294E+06  0.7289E+05  0.0000E+00  0.0000E+00
REACH   19        0     5  0.2538E+04  0.4024E+01  0.3861E+01  0.1543E+00  0.0000E+00  0.3563E+05  0.3563E+05  0.4083E+03  0.5262E+05  0.4926E+05  0.2301E+05  0.2088E+05  0.4264E+05  0.4201E+05  0.0000E+00  0.1608E+04  0.0000E+00  0.6861E-02  0.1015E+03  0.3127E+03  0.0000E+00  0.0000E+00  0.0000E+00  0.0000E+00  0.0000E+00  0.3103E+02  0.0000E+00  0.0000E+00  0.0000E+00  0.0000E+00  0.0000E+00  0.0000E+00  0.0000E+00  0.0000E+00  0.0000E+00  0.0000E+00  0.0000E+00  0.0000E+00  0.0000E+00  0.0000E+00  0.0000E+00  0.0000E+00  0.0000E+00  0.9288E+05  0.2120E+05  0.0000E+00  0.0000E+00
REACH   20        0     5  0.1982E+04  0.2569E+01  0.2374E+01  0.1858E+00  0.0000E+00  0.3486E+05  0.3486E+05  0.5763E+03  0.3954E+05  0.3485E+05  0.1663E+05  0.1386E+05  0.2623E+05  0.2545E+05  0.0000E+00  0.1983E+04  0.0000E+00  0.5185E-01  0.6739E+02  0.2435E+03  0.0000E+00  0.0000E+00  0.0000E+00  0.0000E+00  0.0000E+00  0.2927E+02  0.0000E+00  0.0000E+00  0.0000E+00  0.0000E+00  0.0000E+00  0.0000E+00  0.0000E+00  0.0000E+00  0.0000E+00  0.0000E+00  0.0000E+00  0.0000E+00  0.0000E+00  0.0000E+00  0.0000E+00  0.0000E+00  0.0000E+00  0.6228E+05  0.1410E+05  0.0000E+00  0.0000E+00
REACH    1        0     6  0.1236E+04  0.2041E+00  0.1898E+00  0.1429E-01  0.0000E+00  0.4777E-07  0.4777E-07  0.9730E-07  0.2897E-02  0.2613E-02  0.8691E-02  0.7704E-02  0.1872E+03  0.1722E+03  0.0000E+00  0.3171E+01  0.0000E+00  0.0000E+00  0.1379E-01  0.3222E-01  0.0000E+00  0.0000E+00  0.0000E+00  0.0000E+00  0.0000E+00  0.1476E+01  0.0000E+00  0.0000E+00  0.0000E+00  0.0000E+00  0.0000E+00  0.0000E+00  0.0000E+00  0.0000E+00  0.0000E+00  0.0000E+00  0.0000E+00  0.0000E+00  0.0000E+00  0.0000E+00  0.0000E+00  0.0000E+00  0.0000E+00  0.1754E+03  0.3992E-01  0.0000E+00  0.0000E+00
REACH    2        0     6  0.4258E+05  0.2088E+01  0.1692E+01  0.3960E+00  0.0000E+00  0.1670E+03  0.1720E+03  0.3756E+02  0.4804E+04  0.3452E+04  0.7437E+03  0.4770E+03  0.3596E+04  0.3358E+04  0.2981E+04  0.2158E+04  0.6326E+03  0.8315E+03  0.4427E+04  0.3939E+04  0.0000E+00  0.0000E+00  0.0000E+00  0.0000E+00  0.3978E+05  0.3360E+05  0.0000E+00  0.0000E+00  0.0000E+00  0.0000E+00  0.0000E+00  0.0000E+00  0.0000E+00  0.0000E+00  0.0000E+00  0.0000E+00  0.0000E+00  0.0000E+00  0.0000E+00  0.0000E+00  0.0000E+00  0.0000E+00  0.0000E+00  0.9799E+04  0.4416E+04  0.0000E+00  0.0000E+00
REACH    3        0     6  0.4221E+05  0.2997E+01  0.2024E+01  0.9726E+00  0.0000E+00  0.1942E+03  0.1670E+03  0.6011E+01  0.7244E+04  0.4804E+04  0.1321E+04  0.7437E+03  0.4345E+04  0.3491E+04  0.4472E+04  0.2981E+04  0.3742E+03  0.6326E+03  0.4734E+04  0.4427E+04  0.0000E+00  0.0000E+00  0.0000E+00  0.0000E+00  0.4299E+05  0.3978E+05  0.0000E+00  0.0000E+00  0.0000E+00  0.0000E+00  0.0000E+00  0.0000E+00  0.0000E+00  0.0000E+00  0.0000E+00  0.0000E+00  0.0000E+00  0.0000E+00  0.0000E+00  0.0000E+00  0.0000E+00  0.0000E+00  0.0000E+00  0.1191E+05  0.5171E+04  0.0000E+00  0.0000E+00
REACH    4        0     6  0.2154E+04  0.3302E+00  0.2811E-01  0.3043E+00  0.0000E+00  0.1019E-06  0.5503E+00  0.8808E+01  0.5098E-02  0.2904E-03  0.1516E-01  0.6526E-03  0.3531E+03  0.3686E+01  0.3171E+01  0.1175E+01  0.0000E+00  0.4024E-03  0.4652E-01  0.9462E-02  0.0000E+00  0.0000E+00  0.0000E+00  0.0000E+00  0.1476E+01  0.6034E+00  0.0000E+00  0.0000E+00  0.0000E+00  0.0000E+00  0.0000E+00  0.0000E+00  0.0000E+00  0.0000E+00  0.0000E+00  0.0000E+00  0.0000E+00  0.0000E+00  0.0000E+00  0.0000E+00  0.0000E+00  0.0000E+00  0.0000E+00  0.4862E+01  0.1011E-01  0.0000E+00  0.0000E+00
REACH    5        0     6  0.3777E+04  0.1119E+01  0.1671E+00  0.9600E+00  0.0000E+00  0.3863E-07  0.0000E+00  0.0000E+00  0.3299E-01  0.5782E-02  0.3060E-01  0.2738E-02  0.1455E+04  0.1071E+03  0.0000E+00  0.2816E+01  0.0000E+00  0.5720E-02  0.8380E-01  0.2635E+00  0.0000E+00  0.0000E+00  0.0000E+00  0.0000E+00  0.0000E+00  0.5130E+01  0.0000E+00  0.0000E+00  0.0000E+00  0.0000E+00  0.0000E+00  0.0000E+00  0.0000E+00  0.0000E+00  0.0000E+00  0.0000E+00  0.0000E+00  0.0000E+00  0.0000E+00  0.0000E+00  0.0000E+00  0.0000E+00  0.0000E+00  0.1100E+03  0.2662E+00  0.0000E+00  0.0000E+00
REACH    6        0     6  0.1825E+04  0.7029E+00  0.2588E+00  0.4444E+00  0.0000E+00  0.4194E-07  0.0000E+00  0.0000E+00  0.1164E+00  0.3970E-01  0.5690E-01  0.1224E-01  0.8681E+03  0.2662E+03  0.0000E+00  0.1478E+02  0.0000E+00  0.7855E-02  0.4894E-01  0.1784E+01  0.0000E+00  0.0000E+00  0.0000E+00  0.0000E+00  0.0000E+00  0.5322E+01  0.0000E+00  0.0000E+00  0.0000E+00  0.0000E+00  0.0000E+00  0.0000E+00  0.0000E+00  0.0000E+00  0.0000E+00  0.0000E+00  0.0000E+00  0.0000E+00  0.0000E+00  0.0000E+00  0.0000E+00  0.0000E+00  0.0000E+00  0.2811E+03  0.1796E+01  0.0000E+00  0.0000E+00
REACH    7        0     6  0.3299E+05  0.3021E+01  0.2248E+01  0.7732E+00  0.0000E+00  0.2829E+03  0.1936E+03  0.6817E+01  0.1083E+05  0.7244E+04  0.2339E+04  0.1321E+04  0.3822E+04  0.3598E+04  0.6627E+04  0.4453E+04  0.2023E+03  0.3742E+03  0.4630E+04  0.4732E+04  0.0000E+00  0.0000E+00  0.0000E+00  0.0000E+00  0.4647E+05  0.4298E+05  0.0000E+00  0.0000E+00  0.0000E+00  0.0000E+00  0.0000E+00  0.0000E+00  0.0000E+00  0.0000E+00  0.0000E+00  0.0000E+00  0.0000E+00  0.0000E+00  0.0000E+00  0.0000E+00  0.0000E+00  0.0000E+00  0.0000E+00  0.1567E+05  0.6052E+04  0.0000E+00  0.0000E+00
REACH    8        0     6  0.2678E+05  0.3474E+01  0.2507E+01  0.1298E+01  0.0000E+00  0.2567E+03  0.2829E+03  0.7004E+01  0.1688E+05  0.1083E+05  0.4649E+04  0.2339E+04  0.4904E+04  0.3820E+04  0.8500E+04  0.6627E+04  0.1114E+03  0.2023E+03  0.2835E+04  0.4630E+04  0.0000E+00  0.0000E+00  0.0000E+00  0.0000E+00  0.3585E+05  0.4647E+05  0.0000E+00  0.0000E+00  0.0000E+00  0.0000E+00  0.0000E+00  0.0000E+00  0.0000E+00  0.0000E+00  0.0000E+00  0.0000E+00  0.0000E+00  0.0000E+00  0.0000E+00  0.0000E+00  0.0000E+00  0.0000E+00  0.0000E+00  0.2148E+05  0.6969E+04  0.0000E+00  0.0000E+00
REACH    9        0     6  0.4742E+04  0.1064E+01  0.0000E+00  0.1064E+01  0.0000E+00  0.3478E-07  0.0000E+00  0.0000E+00  0.1557E+01  0.0000E+00  0.8453E+00  0.0000E+00  0.8101E+02  0.0000E+00  0.0000E+00  0.0000E+00  0.0000E+00  0.0000E+00  0.8774E-02  0.0000E+00  0.0000E+00  0.0000E+00  0.0000E+00  0.0000E+00  0.0000E+00  0.0000E+00  0.0000E+00  0.0000E+00  0.0000E+00  0.0000E+00  0.0000E+00  0.0000E+00  0.0000E+00  0.0000E+00  0.0000E+00  0.0000E+00  0.0000E+00  0.0000E+00  0.0000E+00  0.0000E+00  0.0000E+00  0.0000E+00  0.0000E+00  0.0000E+00  0.0000E+00  0.0000E+00  0.0000E+00
REACH   10        0     6  0.2329E+05  0.4322E+01  0.2805E+01  0.1795E+01  0.0000E+00  0.1249E+03  0.2567E+03  0.9011E+01  0.2639E+05  0.1688E+05  0.9512E+04  0.4649E+04  0.4231E+04  0.4055E+04  0.5557E+04  0.8500E+04  0.5818E+02  0.1114E+03  0.9475E+03  0.2835E+04  0.0000E+00  0.0000E+00  0.0000E+00  0.0000E+00  0.3083E+05  0.3585E+05  0.0000E+00  0.0000E+00  0.0000E+00  0.0000E+00  0.0000E+00  0.0000E+00  0.0000E+00  0.0000E+00  0.0000E+00  0.0000E+00  0.0000E+00  0.0000E+00  0.0000E+00  0.0000E+00  0.0000E+00  0.0000E+00  0.0000E+00  0.2955E+05  0.7484E+04  0.0000E+00  0.0000E+00
REACH   11        0     6  0.2406E+04  0.1597E+01  0.1298E+01  0.2932E+00  0.0000E+00  0.4191E-07  0.2794E-08  0.9123E-10  0.1586E+05  0.1358E+05  0.6884E+04  0.5491E+04  0.1018E+04  0.9809E+03  0.0000E+00  0.1408E+04  0.0000E+00  0.2339E-01  0.1200E+02  0.3784E+02  0.0000E+00  0.0000E+00  0.0000E+00  0.0000E+00  0.0000E+00  0.1016E+02  0.0000E+00  0.0000E+00  0.0000E+00  0.0000E+00  0.0000E+00  0.0000E+00  0.0000E+00  0.0000E+00  0.0000E+00  0.0000E+00  0.0000E+00  0.0000E+00  0.0000E+00  0.0000E+00  0.0000E+00  0.0000E+00  0.0000E+00  0.1597E+05  0.5529E+04  0.0000E+00  0.0000E+00
REACH   12        0     6  0.1977E+04  0.6363E+00  0.5467E+00  0.8906E-01  0.0000E+00  0.1561E-07  0.0000E+00  0.0000E+00  0.1931E-01  0.1471E-01  0.1446E-01  0.8109E-02  0.1064E+02  0.9144E+01  0.0000E+00  0.2857E+01  0.0000E+00  0.0000E+00  0.3092E-02  0.1496E-01  0.0000E+00  0.0000E+00  0.0000E+00  0.0000E+00  0.0000E+00  0.4251E+01  0.0000E+00  0.0000E+00  0.0000E+00  0.0000E+00  0.0000E+00  0.0000E+00  0.0000E+00  0.0000E+00  0.0000E+00  0.0000E+00  0.0000E+00  0.0000E+00  0.0000E+00  0.0000E+00  0.0000E+00  0.0000E+00  0.0000E+00  0.1202E+02  0.2307E-01  0.0000E+00  0.0000E+00
REACH   13        0     6  0.1757E+05  0.3361E+01  0.2324E+01  0.1054E+01  0.0000E+00  0.8337E+02  0.1249E+03  0.8034E+01  0.2059E+05  0.1281E+05  0.8405E+04  0.4021E+04  0.3390E+04  0.3217E+04  0.1503E+04  0.4147E+04  0.1624E+02  0.5816E+02  0.1717E+03  0.9096E+03  0.0000E+00  0.0000E+00  0.0000E+00  0.0000E+00  0.2937E+05  0.3082E+05  0.0000E+00  0.0000E+00  0.0000E+00  0.0000E+00  0.0000E+00  0.0000E+00  0.0000E+00  0.0000E+00  0.0000E+00  0.0000E+00  0.0000E+00  0.0000E+00  0.0000E+00  0.0000E+00  0.0000E+00  0.0000E+00  0.0000E+00  0.2023E+05  0.4930E+04  0.0000E+00  0.0000E+00
REACH   14        0     6  0.5274E+04  0.2280E+01  0.8730E+00  0.1436E+01  0.0000E+00  0.3626E-07  0.0000E+00  0.0000E+00  0.2427E+01  0.9332E+00  0.1159E+01  0.2502E+00  0.6274E+02  0.4178E+02  0.0000E+00  0.3036E+02  0.0000E+00  0.9282E+01  0.1046E-01  0.6261E+01  0.0000E+00  0.0000E+00  0.0000E+00  0.0000E+00  0.0000E+00  0.1878E+05  0.0000E+00  0.0000E+00  0.0000E+00  0.0000E+00  0.0000E+00  0.0000E+00  0.0000E+00  0.0000E+00  0.0000E+00  0.0000E+00  0.0000E+00  0.0000E+00  0.0000E+00  0.0000E+00  0.0000E+00  0.0000E+00  0.0000E+00  0.8236E+02  0.6511E+01  0.0000E+00  0.0000E+00
REACH   15        0     6  0.3525E+04  0.1313E+01  0.1005E+01  0.2915E+00  0.0000E+00  0.8255E-07  0.7899E+02  0.8524E+01  0.7636E+04  0.5729E+04  0.3393E+04  0.2214E+04  0.1984E+04  0.1876E+04  0.4547E+03  0.1456E+04  0.4912E-03  0.2593E+01  0.3738E+02  0.1502E+03  0.0000E+00  0.0000E+00  0.0000E+00  0.0000E+00  0.9564E+01  0.2477E+04  0.0000E+00  0.0000E+00  0.0000E+00  0.0000E+00  0.0000E+00  0.0000E+00  0.0000E+00  0.0000E+00  0.0000E+00  0.0000E+00  0.0000E+00  0.0000E+00  0.0000E+00  0.0000E+00  0.0000E+00  0.0000E+00  0.0000E+00  0.9064E+04  0.2364E+04  0.0000E+00  0.0000E+00
REACH   16        0     6  0.1385E+04  0.8394E+00  0.7498E+00  0.8711E-01  0.0000E+00  0.4322E-07  0.2882E-08  0.1948E-09  0.7967E+04  0.7237E+04  0.3713E+04  0.3225E+04  0.1983E+04  0.1946E+04  0.0000E+00  0.4514E+03  0.0000E+00  0.3836E-03  0.1217E+02  0.3674E+02  0.0000E+00  0.0000E+00  0.0000E+00  0.0000E+00  0.0000E+00  0.5830E+01  0.0000E+00  0.0000E+00  0.0000E+00  0.0000E+00  0.0000E+00  0.0000E+00  0.0000E+00  0.0000E+00  0.0000E+00  0.0000E+00  0.0000E+00  0.0000E+00  0.0000E+00  0.0000E+00  0.0000E+00  0.0000E+00  0.0000E+00  0.9634E+04  0.3261E+04  0.0000E+00  0.0000E+00
REACH   17        0     6  0.1718E+04  0.6500E+00  0.4802E+00  0.1695E+00  0.0000E+00  0.1385E-07  0.0000E+00  0.0000E+00  0.1122E+00  0.7407E-01  0.5095E-01  0.2542E-01  0.9345E+01  0.6940E+01  0.0000E+00  0.3281E+01  0.0000E+00  0.1075E-03  0.2405E-02  0.1559E+00  0.0000E+00  0.0000E+00  0.0000E+00  0.0000E+00  0.0000E+00  0.3734E+01  0.0000E+00  0.0000E+00  0.0000E+00  0.0000E+00  0.0000E+00  0.0000E+00  0.0000E+00  0.0000E+00  0.0000E+00  0.0000E+00  0.0000E+00  0.0000E+00  0.0000E+00  0.0000E+00  0.0000E+00  0.0000E+00  0.0000E+00  0.1030E+02  0.1813E+00  0.0000E+00  0.0000E+00
REACH   18        0     6  0.7129E+04  0.1510E+01  0.3620E+00  0.1177E+01  0.0000E+00  0.1250E-07  0.4386E+01  0.4584E+01  0.7307E+00  0.2325E+00  0.3623E+00  0.7458E-01  0.6527E+02  0.2020E+02  0.1662E+02  0.1679E+02  0.1512E+00  0.4361E+01  0.1737E+01  0.2588E+01  0.0000E+00  0.0000E+00  0.0000E+00  0.0000E+00  0.1602E+03  0.8117E+04  0.0000E+00  0.0000E+00  0.0000E+00  0.0000E+00  0.0000E+00  0.0000E+00  0.0000E+00  0.0000E+00  0.0000E+00  0.0000E+00  0.0000E+00  0.0000E+00  0.0000E+00  0.0000E+00  0.0000E+00  0.0000E+00  0.0000E+00  0.4158E+02  0.2663E+01  0.0000E+00  0.0000E+00
REACH   19        0     6  0.2538E+04  0.5259E+00  0.3246E+00  0.2048E+00  0.0000E+00  0.4281E-07  0.0000E+00  0.0000E+00  0.5419E-02  0.2264E-02  0.1626E-01  0.5280E-02  0.4626E+02  0.2892E+02  0.0000E+00  0.5535E+01  0.0000E+00  0.5248E-03  0.5427E-02  0.5984E+00  0.0000E+00  0.0000E+00  0.0000E+00  0.0000E+00  0.0000E+00  0.2526E+01  0.0000E+00  0.0000E+00  0.0000E+00  0.0000E+00  0.0000E+00  0.0000E+00  0.0000E+00  0.0000E+00  0.0000E+00  0.0000E+00  0.0000E+00  0.0000E+00  0.0000E+00  0.0000E+00  0.0000E+00  0.0000E+00  0.0000E+00  0.3446E+02  0.6037E+00  0.0000E+00  0.0000E+00
REACH   20        0     6  0.1982E+04  0.4142E+00  0.1692E+00  0.2466E+00  0.0000E+00  0.4473E-07  0.0000E+00  0.0000E+00  0.4345E-02  0.1141E-02  0.1304E-01  0.2599E-02  0.4429E+02  0.1850E+02  0.0000E+00  0.1108E+02  0.0000E+00  0.1507E+00  0.4351E-02  0.1134E+01  0.0000E+00  0.0000E+00  0.0000E+00  0.0000E+00  0.0000E+00  0.1577E+03  0.0000E+00  0.0000E+00  0.0000E+00  0.0000E+00  0.0000E+00  0.0000E+00  0.0000E+00  0.0000E+00  0.0000E+00  0.0000E+00  0.0000E+00  0.0000E+00  0.0000E+00  0.0000E+00  0.0000E+00  0.0000E+00  0.0000E+00  0.2973E+02  0.1137E+01  0.0000E+00  0.0000E+00
REACH    1        0     7  0.1236E+04  0.1744E+00  0.1604E+00  0.1402E-01  0.0000E+00  0.4936E-07  0.4936E-07  0.1152E-06  0.2994E-02  0.2645E-02  0.8981E-02  0.7755E-02  0.2863E+02  0.2635E+02  0.0000E+00  0.3841E+01  0.0000E+00  0.0000E+00  0.2997E-02  0.8267E-02  0.0000E+00  0.0000E+00  0.0000E+00  0.0000E+00  0.0000E+00  0.1289E+01  0.0000E+00  0.0000E+00  0.0000E+00  0.0000E+00  0.0000E+00  0.0000E+00  0.0000E+00  0.0000E+00  0.0000E+00  0.0000E+00  0.0000E+00  0.0000E+00  0.0000E+00  0.0000E+00  0.0000E+00  0.0000E+00  0.0000E+00  0.3019E+02  0.1602E-01  0.0000E+00  0.0000E+00
REACH    2        0     7  0.4258E+05  0.5323E-01  0.0000E+00  0.5323E-01  0.0000E+00  0.5827E-07  0.0000E+00  0.0000E+00  0.1090E-02  0.0000E+00  0.3269E-02  0.0000E+00  0.3708E+02  0.0000E+00  0.0000E+00  0.0000E+00  0.0000E+00  0.0000E+00  0.1091E-02  0.0000E+00  0.0000E+00  0.0000E+00  0.0000E+00  0.0000E+00  0.0000E+00  0.0000E+00  0.0000E+00  0.0000E+00  0.0000E+00  0.0000E+00  0.0000E+00  0.0000E+00  0.0000E+00  0.0000E+00  0.0000E+00  0.0000E+00  0.0000E+00  0.0000E+00  0.0000E+00  0.0000E+00  0.0000E+00  0.0000E+00  0.0000E+00  0.0000E+00  0.0000E+00  0.0000E+00  0.0000E+00
REACH    3        0     7  0.4221E+05  0.4973E+00  0.0000E+00  0.4973E+00  0.0000E+00  0.2511E+00  0.0000E+00  0.0000E+00  0.4201E-02  0.0000E+00  0.1292E-01  0.0000E+00  0.1064E+03  0.0000E+00  0.7652E+01  0.0000E+00  0.2327E-02  0.0000E+00  0.7333E+00  0.0000E+00  0.0000E+00  0.0000E+00  0.0000E+00  0.0000E+00  0.3224E+01  0.0000E+00  0.0000E+00  0.0000E+00  0.0000E+00  0.0000E+00  0.0000E+00  0.0000E+00  0.0000E+00  0.0000E+00  0.0000E+00  0.0000E+00  0.0000E+00  0.0000E+00  0.0000E+00  0.0000E+00  0.0000E+00  0.0000E+00  0.0000E+00  0.0000E+00  0.0000E+00  0.0000E+00  0.0000E+00
REACH    4        0     7  0.2154E+04  0.2803E+00  0.9468E-02  0.2709E+00  0.0000E+00  0.1053E-06  0.2511E+00  0.4330E+01  0.5213E-02  0.1176E-03  0.1546E-01  0.2670E-03  0.4693E+02  0.1794E+01  0.3841E+01  0.3604E+00  0.0000E+00  0.1019E-03  0.1084E-01  0.1260E-02  0.0000E+00  0.0000E+00  0.0000E+00  0.0000E+00  0.1289E+01  0.1550E+00  0.0000E+00  0.0000E+00  0.0000E+00  0.0000E+00  0.0000E+00  0.0000E+00  0.0000E+00  0.0000E+00  0.0000E+00  0.0000E+00  0.0000E+00  0.0000E+00  0.0000E+00  0.0000E+00  0.0000E+00  0.0000E+00  0.0000E+00  0.2155E+01  0.1527E-02  0.0000E+00  0.0000E+00
REACH    5        0     7  0.3777E+04  0.9638E+00  0.5884E-01  0.9073E+00  0.0000E+00  0.3991E-07  0.0000E+00  0.0000E+00  0.7144E-02  0.2777E-03  0.2143E-01  0.6203E-03  0.1540E+03  0.2089E+02  0.0000E+00  0.4553E+00  0.0000E+00  0.1259E-04  0.1003E-01  0.1600E-01  0.0000E+00  0.0000E+00  0.0000E+00  0.0000E+00  0.0000E+00  0.4728E+00  0.0000E+00  0.0000E+00  0.0000E+00  0.0000E+00  0.0000E+00  0.0000E+00  0.0000E+00  0.0000E+00  0.0000E+00  0.0000E+00  0.0000E+00  0.0000E+00  0.0000E+00  0.0000E+00  0.0000E+00  0.0000E+00  0.0000E+00  0.2134E+02  0.1662E-01  0.0000E+00  0.0000E+00
REACH    6        0     7  0.1825E+04  0.6081E+00  0.1761E+00  0.4361E+00  0.0000E+00  0.4334E-07  0.0000E+00  0.0000E+00  0.3141E-02  0.1732E-03  0.9423E-02  0.1133E-02  0.1250E+03  0.6222E+02  0.0000E+00  0.6836E+01  0.0000E+00  0.2213E-02  0.6068E-02  0.7124E+00  0.0000E+00  0.0000E+00  0.0000E+00  0.0000E+00  0.0000E+00  0.2596E+01  0.0000E+00  0.0000E+00  0.0000E+00  0.0000E+00  0.0000E+00  0.0000E+00  0.0000E+00  0.0000E+00  0.0000E+00  0.0000E+00  0.0000E+00  0.0000E+00  0.0000E+00  0.0000E+00  0.0000E+00  0.0000E+00  0.0000E+00  0.6906E+02  0.7136E+00  0.0000E+00  0.0000E+00
REACH    7        0     7  0.3299E+05  0.4502E+00  0.0000E+00  0.4502E+00  0.0000E+00  0.6464E+02  0.0000E+00  0.0000E+00  0.4398E+01  0.0000E+00  0.5465E+00  0.0000E+00  0.1186E+03  0.0000E+00  0.1932E+01  0.0000E+00  0.3877E+00  0.0000E+00  0.3531E+01  0.0000E+00  0.0000E+00  0.0000E+00  0.0000E+00  0.0000E+00  0.9404E+02  0.0000E+00  0.0000E+00  0.0000E+00  0.0000E+00  0.0000E+00  0.0000E+00  0.0000E+00  0.0000E+00  0.0000E+00  0.0000E+00  0.0000E+00  0.0000E+00  0.0000E+00  0.0000E+00  0.0000E+00  0.0000E+00  0.0000E+00  0.0000E+00  0.0000E+00  0.0000E+00  0.0000E+00  0.0000E+00
REACH    8        0     7  0.2678E+05  0.8603E+00  0.4828E-02  0.8555E+00  0.0000E+00  0.1055E+04  0.6464E+02  0.5570E+03  0.4747E+03  0.4396E+01  0.9174E+02  0.5399E+00  0.7960E+04  0.1184E+03  0.1203E+03  0.1931E+01  0.1750E+02  0.3877E+00  0.1822E+03  0.3526E+01  0.0000E+00  0.0000E+00  0.0000E+00  0.0000E+00  0.5232E+04  0.9403E+02  0.0000E+00  0.0000E+00  0.0000E+00  0.0000E+00  0.0000E+00  0.0000E+00  0.0000E+00  0.0000E+00  0.0000E+00  0.0000E+00  0.0000E+00  0.0000E+00  0.0000E+00  0.0000E+00  0.0000E+00  0.0000E+00  0.0000E+00  0.1252E+03  0.4066E+01  0.0000E+00  0.0000E+00
REACH    9        0     7  0.4742E+04  0.9138E+00  0.4026E-03  0.9134E+00  0.0000E+00  0.3594E-07  0.0000E+00  0.0000E+00  0.8069E-02  0.2433E-05  0.2421E-01  0.5772E-05  0.4965E+02  0.2426E-01  0.0000E+00  0.1023E-02  0.0000E+00  0.0000E+00  0.8084E-02  0.1016E-04  0.0000E+00  0.0000E+00  0.0000E+00  0.0000E+00  0.0000E+00  0.3235E-02  0.0000E+00  0.0000E+00  0.0000E+00  0.0000E+00  0.0000E+00  0.0000E+00  0.0000E+00  0.0000E+00  0.0000E+00  0.0000E+00  0.0000E+00  0.0000E+00  0.0000E+00  0.0000E+00  0.0000E+00  0.0000E+00  0.0000E+00  0.2529E-01  0.1593E-04  0.0000E+00  0.0000E+00
REACH   10        0     7  0.2329E+05  0.1417E+01  0.2877E+00  0.1129E+01  0.0000E+00  0.6913E+04  0.1055E+04  0.1564E+03  0.1890E+04  0.4747E+03  0.6004E+03  0.9171E+02  0.1787E+05  0.7870E+04  0.1702E+03  0.1203E+03  0.1769E+02  0.1750E+02  0.2016E+03  0.1822E+03  0.0000E+00  0.0000E+00  0.0000E+00  0.0000E+00  0.9597E+04  0.5232E+04  0.0000E+00  0.0000E+00  0.0000E+00  0.0000E+00  0.0000E+00  0.0000E+00  0.0000E+00  0.0000E+00  0.0000E+00  0.0000E+00  0.0000E+00  0.0000E+00  0.0000E+00  0.0000E+00  0.0000E+00  0.0000E+00  0.0000E+00  0.8483E+04  0.2739E+03  0.0000E+00  0.0000E+00
REACH   11        0     7  0.2406E+04  0.6309E+00  0.3210E+00  0.3142E+00  0.0000E+00  0.6595E+04  0.6569E+04  0.4737E+03  0.1881E+04  0.1296E+04  0.8144E+03  0.4678E+03  0.3892E+04  0.3363E+04  0.0000E+00  0.7190E+00  0.0000E+00  0.3837E-04  0.3270E+01  0.1073E+02  0.0000E+00  0.0000E+00  0.0000E+00  0.0000E+00  0.0000E+00  0.2654E+01  0.0000E+00  0.0000E+00  0.0000E+00  0.0000E+00  0.0000E+00  0.0000E+00  0.0000E+00  0.0000E+00  0.0000E+00  0.0000E+00  0.0000E+00  0.0000E+00  0.0000E+00  0.0000E+00  0.0000E+00  0.0000E+00  0.0000E+00  0.4660E+04  0.4785E+03  0.0000E+00  0.0000E+00
REACH   12        0     7  0.1977E+04  0.5518E+00  0.4612E+00  0.9023E-01  0.0000E+00  0.1613E-07  0.0000E+00  0.0000E+00  0.3189E-02  0.1775E-02  0.9568E-02  0.4023E-02  0.9633E+01  0.8050E+01  0.0000E+00  0.2504E+01  0.0000E+00  0.1493E-03  0.3195E-02  0.1835E-01  0.0000E+00  0.0000E+00  0.0000E+00  0.0000E+00  0.0000E+00  0.3705E+01  0.0000E+00  0.0000E+00  0.0000E+00  0.0000E+00  0.0000E+00  0.0000E+00  0.0000E+00  0.0000E+00  0.0000E+00  0.0000E+00  0.0000E+00  0.0000E+00  0.0000E+00  0.0000E+00  0.0000E+00  0.0000E+00  0.0000E+00  0.1056E+02  0.2237E-01  0.0000E+00  0.0000E+00
REACH   13        0     7  0.1757E+05  0.1526E+01  0.5011E+00  0.1054E+01  0.0000E+00  0.2035E+04  0.3441E+03  0.4693E+02  0.1642E+04  0.5942E+03  0.6097E+03  0.1326E+03  0.2145E+05  0.1448E+05  0.1708E+03  0.1670E+03  0.1269E+02  0.1769E+02  0.8611E+02  0.1909E+03  0.0000E+00  0.0000E+00  0.0000E+00  0.0000E+00  0.1928E+05  0.9590E+04  0.0000E+00  0.0000E+00  0.0000E+00  0.0000E+00  0.0000E+00  0.0000E+00  0.0000E+00  0.0000E+00  0.0000E+00  0.0000E+00  0.0000E+00  0.0000E+00  0.0000E+00  0.0000E+00  0.0000E+00  0.0000E+00  0.0000E+00  0.1526E+05  0.3234E+03  0.0000E+00  0.0000E+00
[...]
REACH    8        0     7  0.2678E+05  0.7644E+00  0.0000E+00  0.7652E+00  0.0000E+00  0.3449E+00  0.0000E+00  0.0000E+00  0.4483E+00  0.0000E+00  0.6317E-01  0.0000E+00  0.9059E+02  0.0000E+00  0.8677E+00  0.0000E+00  0.4367E+00  0.0000E+00  0.1657E+01  0.0000E+00  0.0000E+00  0.0000E+00  0.0000E+00  0.0000E+00  0.1809E+03  0.0000E+00  0.0000E+00  0.0000E+00  0.0000E+00  0.0000E+00  0.0000E+00  0.0000E+00  0.0000E+00  0.0000E+00  0.0000E+00  0.0000E+00  0.0000E+00  0.0000E+00  0.0000E+00  0.0000E+00  0.0000E+00  0.0000E+00  0.0000E+00  0.0000E+00  0.0000E+00  0.0000E+00  0.0000E+00
REACH    9        0     7  0.4742E+04  0.1659E+01  0.2379E+00  0.1459E+01  0.0000E+00  0.1031E-05  0.0000E+00  0.0000E+00  0.3157E+02  0.7013E+01  0.1685E+02  0.2188E+01  0.3200E+03  0.1607E+03  0.0000E+00  0.1856E+02  0.0000E+00  0.4274E+00  0.9487E-01  0.7937E+01  0.0000E+00  0.0000E+00  0.0000E+00  0.0000E+00  0.0000E+00  0.6601E+02  0.0000E+00  0.0000E+00  0.0000E+00  0.0000E+00  0.0000E+00  0.0000E+00  0.0000E+00  0.0000E+00  0.0000E+00  0.0000E+00  0.0000E+00  0.0000E+00  0.0000E+00  0.0000E+00  0.0000E+00  0.0000E+00  0.0000E+00  0.1867E+03  0.1012E+02  0.0000E+00  0.0000E+00
REACH   10        0     7  0.2329E+05  0.1112E+01  0.8439E-02  0.1154E+01  0.0000E+00  0.2214E+01  0.3449E+00  0.4922E+00  0.2303E+01  0.4397E+00  0.4707E+00  0.3757E-01  0.1001E+03  0.2629E+02  0.2046E+02  0.8677E+00  0.6052E+01  0.4367E+00  0.6269E+01  0.1648E+01  0.0000E+00  0.0000E+00  0.0000E+00  0.0000E+00  0.3604E+04  0.1809E+03  0.0000E+00  0.0000E+00  0.0000E+00  0.0000E+00  0.0000E+00  0.0000E+00  0.0000E+00  0.0000E+00  0.0000E+00  0.0000E+00  0.0000E+00  0.0000E+00  0.0000E+00  0.0000E+00  0.0000E+00  0.0000E+00  0.0000E+00  0.2803E+02  0.1686E+01  0.0000E+00  0.0000E+00
REACH   11        0     7  0.2406E+04  0.5604E+00  0.2420E+00  0.3201E+00  0.0000E+00  0.4331E-07  0.0000E+00  0.0000E+00  0.2097E+01  0.1018E+01  0.9438E+00  0.2635E+00  0.7717E+01  0.4779E+01  0.0000E+00  0.4996E+01  0.0000E+00  0.6223E-03  0.6696E-02  0.1003E+01  0.0000E+00  0.0000E+00  0.0000E+00  0.0000E+00  0.0000E+00  0.1944E+01  0.0000E+00  0.0000E+00  0.0000E+00  0.0000E+00  0.0000E+00  0.0000E+00  0.0000E+00  0.0000E+00  0.0000E+00  0.0000E+00  0.0000E+00  0.0000E+00  0.0000E+00  0.0000E+00  0.0000E+00  0.0000E+00  0.0000E+00  0.1079E+02  0.1267E+01  0.0000E+00  0.0000E+00
REACH   12        0     7  0.1977E+04  0.5588E+00  0.4635E+00  0.9486E-01  0.0000E+00  0.1613E-07  0.0000E+00  0.0000E+00  0.3605E-02  0.2124E-02  0.9571E-02  0.4121E-02  0.7882E+01  0.6537E+01  0.0000E+00  0.2328E+01  0.0000E+00  0.5062E-04  0.3195E-02  0.1790E-01  0.0000E+00  0.0000E+00  0.0000E+00  0.0000E+00  0.0000E+00  0.3725E+01  0.0000E+00  0.0000E+00  0.0000E+00  0.0000E+00  0.0000E+00  0.0000E+00  0.0000E+00  0.0000E+00  0.0000E+00  0.0000E+00  0.0000E+00  0.0000E+00  0.0000E+00  0.0000E+00  0.0000E+00  0.0000E+00  0.0000E+00  0.8867E+01  0.2202E-01  0.0000E+00  0.0000E+00
REACH   13        0     7  0.1757E+05  0.1229E+01  0.1648E+00  0.1114E+01  0.0000E+00  0.5626E+01  0.2214E+01  0.4286E+01  0.2202E+01  0.1273E+01  0.8111E+00  0.1908E+00  0.5900E+02  0.6934E+02  0.4942E+02  0.1313E+02  0.9260E+01  0.6051E+01  0.7158E+01  0.5244E+01  0.0000E+00  0.0000E+00  0.0000E+00  0.0000E+00  0.1354E+05  0.3598E+04  0.0000E+00  0.0000E+00  0.0000E+00  0.0000E+00  0.0000E+00  0.0000E+00  0.0000E+00  0.0000E+00  0.0000E+00  0.0000E+00  0.0000E+00  0.0000E+00  0.0000E+00  0.0000E+00  0.0000E+00  0.0000E+00  0.0000E+00  0.8980E+02  0.5435E+01  0.0000E+00  0.0000E+00
REACH   14        0     7  0.5274E+04  0.1954E+01  0.4484E+00  0.1530E+01  0.0000E+00  0.2607E-07  0.0000E+00  0.0000E+00  0.3794E+00  0.7249E-01  0.1969E+00  0.2160E-01  0.5223E+02  0.1681E+02  0.0000E+00  0.2033E+02  0.0000E+00  0.5303E+01  0.6952E-02  0.3110E+01  0.0000E+00  0.0000E+00  0.0000E+00  0.0000E+00  0.0000E+00  0.9619E+04  0.0000E+00  0.0000E+00  0.0000E+00  0.0000E+00  0.0000E+00  0.0000E+00  0.0000E+00  0.0000E+00  0.0000E+00  0.0000E+00  0.0000E+00  0.0000E+00  0.0000E+00  0.0000E+00  0.0000E+00  0.0000E+00  0.0000E+00  0.4251E+02  0.3132E+01  0.0000E+00  0.0000E+00
REACH   15        0     7  0.3525E+04  0.6901E+00  0.3770E+00  0.3185E+00  0.0000E+00  0.8233E-07  0.5345E+01  0.5257E+01  0.2027E+00  0.2637E+00  0.5936E-01  0.3058E-01  0.1420E+02  0.1571E+02  0.4995E+01  0.2879E+02  0.4778E-03  0.3916E+01  0.6351E+00  0.3998E+01  0.0000E+00  0.0000E+00  0.0000E+00  0.0000E+00  0.4909E+01  0.3847E+04  0.0000E+00  0.0000E+00  0.0000E+00  0.0000E+00  0.0000E+00  0.0000E+00  0.0000E+00  0.0000E+00  0.0000E+00  0.0000E+00  0.0000E+00  0.0000E+00  0.0000E+00  0.0000E+00  0.0000E+00  0.0000E+00  0.0000E+00  0.4868E+02  0.4028E+01  0.0000E+00  0.0000E+00
REACH   16        0     7  0.1385E+04  0.3395E+00  0.2461E+00  0.9518E-01  0.0000E+00  0.4466E-07  0.0000E+00  0.0000E+00  0.2142E+00  0.1938E+00  0.1031E+00  0.5192E-01  0.8492E+01  0.7009E+01  0.0000E+00  0.4505E+01  0.0000E+00  0.4778E-03  0.3412E-02  0.3914E+00  0.0000E+00  0.0000E+00  0.0000E+00  0.0000E+00  0.0000E+00  0.1978E+01  0.0000E+00  0.0000E+00  0.0000E+00  0.0000E+00  0.0000E+00  0.0000E+00  0.0000E+00  0.0000E+00  0.0000E+00  0.0000E+00  0.0000E+00  0.0000E+00  0.0000E+00  0.0000E+00  0.0000E+00  0.0000E+00  0.0000E+00  0.1171E+02  0.4433E+00  0.0000E+00  0.0000E+00
REACH   17        0     7  0.1718E+04  0.5457E+00  0.3648E+00  0.1807E+00  0.0000E+00  0.1432E-07  0.0000E+00  0.0000E+00  0.1433E-01  0.7494E-02  0.1148E-01  0.3930E-02  0.8227E+01  0.5496E+01  0.0000E+00  0.4898E+00  0.0000E+00  0.0000E+00  0.2465E-02  0.2426E+00  0.0000E+00  0.0000E+00  0.0000E+00  0.0000E+00  0.0000E+00  0.2931E+01  0.0000E+00  0.0000E+00  0.0000E+00  0.0000E+00  0.0000E+00  0.0000E+00  0.0000E+00  0.0000E+00  0.0000E+00  0.0000E+00  0.0000E+00  0.0000E+00  0.0000E+00  0.0000E+00  0.0000E+00  0.0000E+00  0.0000E+00  0.5993E+01  0.2465E+00  0.0000E+00  0.0000E+00
REACH   18        0     7  0.7129E+04  0.1164E+01  0.2781E-01  0.1153E+01  0.0000E+00  0.1292E-07  0.2810E+00  0.1724E+01  0.1045E+00  0.3191E-02  0.6157E-01  0.1232E-02  0.4444E+02  0.1275E+01  0.3502E+01  0.3059E+00  0.5375E-02  0.4128E-01  0.1589E+00  0.4398E-01  0.0000E+00  0.0000E+00  0.0000E+00  0.0000E+00  0.6815E+01  0.7410E+02  0.0000E+00  0.0000E+00  0.0000E+00  0.0000E+00  0.0000E+00  0.0000E+00  0.0000E+00  0.0000E+00  0.0000E+00  0.0000E+00  0.0000E+00  0.0000E+00  0.0000E+00  0.0000E+00  0.0000E+00  0.0000E+00  0.0000E+00  0.1625E+01  0.4521E-01  0.0000E+00  0.0000E+00
REACH   19        0     7  0.2538E+04  0.4287E+00  0.2103E+00  0.2184E+00  0.0000E+00  0.4424E-07  0.0000E+00  0.0000E+00  0.5600E-02  0.1785E-02  0.1680E-01  0.4004E-02  0.4521E+02  0.2245E+02  0.0000E+00  0.2068E+01  0.0000E+00  0.1752E-03  0.5608E-02  0.3561E-01  0.0000E+00  0.0000E+00  0.0000E+00  0.0000E+00  0.0000E+00  0.1690E+01  0.0000E+00  0.0000E+00  0.0000E+00  0.0000E+00  0.0000E+00  0.0000E+00  0.0000E+00  0.0000E+00  0.0000E+00  0.0000E+00  0.0000E+00  0.0000E+00  0.0000E+00  0.0000E+00  0.0000E+00  0.0000E+00  0.0000E+00  0.2452E+02  0.3962E-01  0.0000E+00  0.0000E+00
REACH   20        0     7  0.1982E+04  0.3430E+00  0.8286E-01  0.2629E+00  0.0000E+00  0.4622E-07  0.0000E+00  0.0000E+00  0.4490E-02  0.7034E-03  0.1347E-01  0.1584E-02  0.4282E+02  0.1070E+02  0.0000E+00  0.1433E+01  0.0000E+00  0.5200E-02  0.4496E-02  0.1199E+00  0.0000E+00  0.0000E+00  0.0000E+00  0.0000E+00  0.0000E+00  0.5125E+01  0.0000E+00  0.0000E+00  0.0000E+00  0.0000E+00  0.0000E+00  0.0000E+00  0.0000E+00  0.0000E+00  0.0000E+00  0.0000E+00  0.0000E+00  0.0000E+00  0.0000E+00  0.0000E+00  0.0000E+00  0.0000E+00  0.0000E+00  0.1214E+02  0.1215E+00  0.0000E+00  0.0000E+00
REACH    1        0     8  0.1236E+04  0.1619E+00  0.1502E+00  0.1168E-01  0.0000E+00  0.4936E-07  0.4936E-07  0.1230E-06  0.2994E-02  0.2674E-02  0.8981E-02  0.7852E-02  0.1907E+03  0.1807E+03  0.0000E+00  0.3152E+01  0.0000E+00  0.0000E+00  0.9909E-02  0.2381E-01  0.0000E+00  0.0000E+00  0.0000E+00  0.0000E+00  0.0000E+00  0.1207E+01  0.0000E+00  0.0000E+00  0.0000E+00  0.0000E+00  0.0000E+00  0.0000E+00  0.0000E+00  0.0000E+00  0.0000E+00  0.0000E+00  0.0000E+00  0.0000E+00  0.0000E+00  0.0000E+00  0.0000E+00  0.0000E+00  0.0000E+00  0.1839E+03  0.3166E-01  0.0000E+00  0.0000E+00
REACH    2        0     8  0.4258E+05  0.9573E+01  0.9411E+01  0.1619E+00  0.0000E+00  0.1895E+04  0.2291E+04  0.1121E+02  0.2129E+05  0.1937E+05  0.7206E+04  0.6251E+04  0.5914E+06  0.5844E+06  0.8568E+04  0.8922E+04  0.5979E+03  0.1081E+04  0.5350E+04  0.6057E+04  0.0000E+00  0.0000E+00  0.0000E+00  0.0000E+00  0.1634E+06  0.1653E+06  0.0000E+00  0.0000E+00  0.0000E+00  0.0000E+00  0.0000E+00  0.0000E+00  0.0000E+00  0.0000E+00  0.0000E+00  0.0000E+00  0.0000E+00  0.0000E+00  0.0000E+00  0.0000E+00  0.0000E+00  0.0000E+00  0.0000E+00  0.6138E+06  0.1231E+05  0.0000E+00  0.0000E+00
REACH    3        0     8  0.4221E+05  0.1033E+02  0.9521E+01  0.7276E+00  0.0000E+00  0.1787E+04  0.1895E+04  0.9854E+01  0.2438E+05  0.2129E+05  0.8843E+04  0.7206E+04  0.6055E+06  0.5913E+06  0.7723E+04  0.8568E+04  0.2085E+03  0.5979E+03  0.4194E+04  0.5350E+04  0.0000E+00  0.0000E+00  0.0000E+00  0.0000E+00  0.1652E+06  0.1634E+06  0.0000E+00  0.0000E+00  0.0000E+00  0.0000E+00  0.0000E+00  0.0000E+00  0.0000E+00  0.0000E+00  0.0000E+00  0.0000E+00  0.0000E+00  0.0000E+00  0.0000E+00  0.0000E+00  0.0000E+00  0.0000E+00  0.0000E+00  0.6217E+06  0.1256E+05  0.0000E+00  0.0000E+00
REACH    4        0     8  0.2154E+04  0.2648E+00  0.2295E-01  0.2406E+00  0.0000E+00  0.1053E-06  0.5477E+00  0.6314E+01  0.5242E-02  0.3191E-03  0.1556E-01  0.7409E-03  0.3674E+03  0.9274E+02  0.3152E+01  0.9794E+00  0.0000E+00  0.2599E-03  0.3387E-01  0.2739E-01  0.0000E+00  0.0000E+00  0.0000E+00  0.0000E+00  0.1207E+01  0.4224E+00  0.0000E+00  0.0000E+00  0.0000E+00  0.0000E+00  0.0000E+00  0.0000E+00  0.0000E+00  0.0000E+00  0.0000E+00  0.0000E+00  0.0000E+00  0.0000E+00  0.0000E+00  0.0000E+00  0.0000E+00  0.0000E+00  0.0000E+00  0.9372E+02  0.2813E-01  0.0000E+00  0.0000E+00
REACH    5        0     8  0.3777E+04  0.9630E+00  0.1699E+00  0.7856E+00  0.0000E+00  0.3991E-07  0.0000E+00  0.0000E+00  0.7144E-02  0.8186E-03  0.2143E-01  0.1837E-02  0.1621E+04  0.4235E+03  0.0000E+00  0.9012E+00  0.0000E+00  0.3616E-04  0.5576E-01  0.1171E+00  0.0000E+00  0.0000E+00  0.0000E+00  0.0000E+00  0.0000E+00  0.1378E+01  0.0000E+00  0.0000E+00  0.0000E+00  0.0000E+00  0.0000E+00  0.0000E+00  0.0000E+00  0.0000E+00  0.0000E+00  0.0000E+00  0.0000E+00  0.0000E+00  0.0000E+00  0.0000E+00  0.0000E+00  0.0000E+00  0.0000E+00  0.4245E+03  0.1189E+00  0.0000E+00  0.0000E+00
REACH    6        0     8  0.1825E+04  0.6332E+00  0.2709E+00  0.3641E+00  0.0000E+00  0.4334E-07  0.0000E+00  0.0000E+00  0.3141E-02  0.2071E-03  0.9423E-02  0.1782E-02  0.1005E+04  0.4803E+03  0.0000E+00  0.1940E+02  0.0000E+00  0.1898E-01  0.3291E-01  0.1980E+01  0.0000E+00  0.0000E+00  0.0000E+00  0.0000E+00  0.0000E+00  0.1366E+02  0.0000E+00  0.0000E+00  0.0000E+00  0.0000E+00  0.0000E+00  0.0000E+00  0.0000E+00  0.0000E+00  0.0000E+00  0.0000E+00  0.0000E+00  0.0000E+00  0.0000E+00  0.0000E+00  0.0000E+00  0.0000E+00  0.0000E+00  0.4997E+03  0.1982E+01  0.0000E+00  0.0000E+00
REACH    7        0     8  0.3299E+05  0.1049E+02  0.9623E+01  0.7322E+00  0.0000E+00  0.7424E+05  0.1786E+04  0.1028E+02  0.2836E+05  0.2438E+05  0.1111E+05  0.8843E+04  0.6194E+06  0.6041E+06  0.6174E+04  0.7701E+04  0.7368E+02  0.2085E+03  0.3117E+04  0.4191E+04  0.0000E+00  0.0000E+00  0.0000E+00  0.0000E+00  0.1068E+06  0.1652E+06  0.0000E+00  0.0000E+00  0.0000E+00  0.0000E+00  0.0000E+00  0.0000E+00  0.0000E+00  0.0000E+00  0.0000E+00  0.0000E+00  0.0000E+00  0.0000E+00  0.0000E+00  0.0000E+00  0.0000E+00  0.0000E+00  0.0000E+00  0.6364E+06  0.1303E+05  0.0000E+00  0.0000E+00
REACH    8        0     8  0.2678E+05  0.6755E+01  0.5259E+01  0.1032E+01  0.0000E+00  0.1994E+05  0.3963E+04  0.8014E+02  0.1483E+05  0.9942E+04  0.4649E+04  0.2570E+04  0.4099E+06  0.3565E+06  0.4162E+04  0.4079E+04  0.3115E+02  0.7363E+02  0.2160E+04  0.2907E+04  0.0000E+00  0.0000E+00  0.0000E+00  0.0000E+00  0.7807E+05  0.1067E+06  0.0000E+00  0.0000E+00  0.0000E+00  0.0000E+00  0.0000E+00  0.0000E+00  0.0000E+00  0.0000E+00  0.0000E+00  0.0000E+00  0.0000E+00  0.0000E+00  0.0000E+00  0.0000E+00  0.0000E+00  0.0000E+00  0.0000E+00  0.3706E+06  0.5477E+04  0.0000E+00  0.0000E+00
REACH    9        0     8  0.4742E+04  0.6095E+01  0.4755E+01  0.1147E+01  0.0000E+00  0.7742E+05  0.7028E+05  0.4010E+03  0.2453E+05  0.1841E+05  0.1309E+05  0.8540E+04  0.2791E+06  0.2629E+06  0.0000E+00  0.2095E+04  0.0000E+00  0.5264E-01  0.5475E+02  0.2106E+03  0.0000E+00  0.0000E+00  0.0000E+00  0.0000E+00  0.0000E+00  0.3898E+02  0.0000E+00  0.0000E+00  0.0000E+00  0.0000E+00  0.0000E+00  0.0000E+00  0.0000E+00  0.0000E+00  0.0000E+00  0.0000E+00  0.0000E+00  0.0000E+00  0.0000E+00  0.0000E+00  0.0000E+00  0.0000E+00  0.0000E+00  0.2834E+06  0.8751E+04  0.0000E+00  0.0000E+00
REACH   10        0     8  0.2329E+05  0.7716E+01  0.6107E+01  0.1119E+01  0.0000E+00  0.1184E+06  0.1994E+05  0.2709E+03  0.2185E+05  0.1483E+05  0.8413E+04  0.4649E+04  0.4614E+06  0.4094E+06  0.2639E+04  0.4162E+04  0.1717E+02  0.3115E+02  0.1034E+04  0.2160E+04  0.0000E+00  0.0000E+00  0.0000E+00  0.0000E+00  0.3292E+05  0.7807E+05  0.0000E+00  0.0000E+00  0.0000E+00  0.0000E+00  0.0000E+00  0.0000E+00  0.0000E+00  0.0000E+00  0.0000E+00  0.0000E+00  0.0000E+00  0.0000E+00  0.0000E+00  0.0000E+00  0.0000E+00  0.0000E+00  0.0000E+00  0.4284E+06  0.6809E+04  0.0000E+00  0.0000E+00
REACH   11        0     8  0.2406E+04  0.6556E+00  0.3600E+00  0.2938E+00  0.0000E+00  0.4331E-07  0.0000E+00  0.0000E+00  0.5164E-02  0.1156E-02  0.1549E-01  0.3350E-02  0.5233E+04  0.4682E+04  0.0000E+00  0.5241E+01  0.0000E+00  0.1109E-03  0.1841E+01  0.3233E+01  0.0000E+00  0.0000E+00  0.0000E+00  0.0000E+00  0.0000E+00  0.2929E+01  0.0000E+00  0.0000E+00  0.0000E+00  0.0000E+00  0.0000E+00  0.0000E+00  0.0000E+00  0.0000E+00  0.0000E+00  0.0000E+00  0.0000E+00  0.0000E+00  0.0000E+00  0.0000E+00  0.0000E+00  0.0000E+00  0.0000E+00  0.4687E+04  0.3236E+01  0.0000E+00  0.0000E+00
REACH   12        0     8  0.1977E+04  0.1389E+01  0.1317E+01  0.7747E-01  0.0000E+00  0.1276E+05  0.1276E+05  0.2978E+03  0.4624E+04  0.4326E+04  0.1816E+04  0.1640E+04  0.8801E+05  0.8756E+05  0.0000E+00  0.2254E+03  0.0000E+00  0.7883E-04  0.7813E+01  0.2333E+02  0.0000E+00  0.0000E+00  0.0000E+00  0.0000E+00  0.0000E+00  0.1058E+02  0.0000E+00  0.0000E+00  0.0000E+00  0.0000E+00  0.0000E+00  0.0000E+00  0.0000E+00  0.0000E+00  0.0000E+00  0.0000E+00  0.0000E+00  0.0000E+00  0.0000E+00  0.0000E+00  0.0000E+00  0.0000E+00  0.0000E+00  0.9211E+05  0.1664E+04  0.0000E+00  0.0000E+00
REACH   13        0     8  0.1757E+05  0.5520E+01  0.4273E+01  0.9913E+00  0.0000E+00  0.1648E+05  0.2300E+04  0.2463E+02  0.8809E+04  0.6583E+04  0.3326E+04  0.2178E+04  0.2821E+06  0.2552E+06  0.1487E+04  0.2409E+04  0.9762E+01  0.1717E+02  0.4116E+03  0.9989E+03  0.0000E+00  0.0000E+00  0.0000E+00  0.0000E+00  0.2271E+05  0.3290E+05  0.0000E+00  0.0000E+00  0.0000E+00  0.0000E+00  0.0000E+00  0.0000E+00  0.0000E+00  0.0000E+00  0.0000E+00  0.0000E+00  0.0000E+00  0.0000E+00  0.0000E+00  0.0000E+00  0.0000E+00  0.0000E+00  0.0000E+00  0.2642E+06  0.3177E+04  0.0000E+00  0.0000E+00
REACH   14        0     8  0.5274E+04  0.3685E+01  0.2057E+01  0.1252E+01  0.0000E+00  0.2194E+05  0.1232E+05  0.2745E+03  0.5220E+04  0.2786E+04  0.2334E+04  0.9603E+03  0.1395E+06  0.1102E+06  0.0000E+00  0.2943E+02  0.0000E+00  0.5090E+01  0.1548E+02  0.7590E+02  0.0000E+00  0.0000E+00  0.0000E+00  0.0000E+00  0.0000E+00  0.1462E+05  0.0000E+00  0.0000E+00  0.0000E+00  0.0000E+00  0.0000E+00  0.0000E+00  0.0000E+00  0.0000E+00  0.0000E+00  0.0000E+00  0.0000E+00  0.0000E+00  0.0000E+00  0.0000E+00  0.0000E+00  0.0000E+00  0.0000E+00  0.1131E+06  0.1036E+04  0.0000E+00  0.0000E+00
REACH   15        0     8  0.3525E+04  0.1540E+01  0.1213E+01  0.2928E+00  0.0000E+00  0.4420E+04  0.4588E+03  0.2772E+02  0.2285E+04  0.1704E+04  0.9332E+03  0.6097E+03  0.3670E+05  0.3355E+05  0.1530E+03  0.4448E+03  0.1713E-03  0.4561E+01  0.4198E+02  0.1356E+03  0.0000E+00  0.0000E+00  0.0000E+00  0.0000E+00  0.1169E+02  0.8047E+04  0.0000E+00  0.0000E+00  0.0000E+00  0.0000E+00  0.0000E+00  0.0000E+00  0.0000E+00  0.0000E+00  0.0000E+00  0.0000E+00  0.0000E+00  0.0000E+00  0.0000E+00  0.0000E+00  0.0000E+00  0.0000E+00  0.0000E+00  0.3570E+05  0.7452E+03  0.0000E+00  0.0000E+00
REACH   16        0     8  0.1385E+04  0.5060E+00  0.4181E+00  0.8756E-01  0.0000E+00  0.3890E+03  0.3890E+03  0.3607E+02  0.1947E+03  0.1688E+03  0.9935E+02  0.8036E+02  0.1727E+05  0.1681E+05  0.0000E+00  0.9150E+01  0.0000E+00  0.1713E-03  0.4734E+01  0.1430E+02  0.0000E+00  0.0000E+00  0.0000E+00  0.0000E+00  0.0000E+00  0.3359E+01  0.0000E+00  0.0000E+00  0.0000E+00  0.0000E+00  0.0000E+00  0.0000E+00  0.0000E+00  0.0000E+00  0.0000E+00  0.0000E+00  0.0000E+00  0.0000E+00  0.0000E+00  0.0000E+00  0.0000E+00  0.0000E+00  0.0000E+00  0.1699E+05  0.9466E+02  0.0000E+00  0.0000E+00
REACH   17        0     8  0.1718E+04  0.1175E+01  0.1035E+01  0.1481E+00  0.0000E+00  0.4031E+04  0.4031E+04  0.1414E+03  0.2322E+04  0.2116E+04  0.9793E+03  0.8529E+03  0.1844E+05  0.1822E+05  0.0000E+00  0.1439E+03  0.0000E+00  0.0000E+00  0.9142E+01  0.2715E+02  0.0000E+00  0.0000E+00  0.0000E+00  0.0000E+00  0.0000E+00  0.8331E+01  0.0000E+00  0.0000E+00  0.0000E+00  0.0000E+00  0.0000E+00  0.0000E+00  0.0000E+00  0.0000E+00  0.0000E+00  0.0000E+00  0.0000E+00  0.0000E+00  0.0000E+00  0.0000E+00  0.0000E+00  0.0000E+00  0.0000E+00  0.2048E+05  0.8800E+03  0.0000E+00  0.0000E+00
REACH   18        0     8  0.7129E+04  0.3039E+01  0.1843E+01  0.9651E+00  0.0000E+00  0.2224E+05  0.3697E+04  0.5663E+02  0.6541E+04  0.4319E+04  0.3158E+04  0.1756E+04  0.1521E+06  0.1320E+06  0.2621E+03  0.1013E+04  0.1433E-02  0.1123E+00  0.4556E+02  0.1986E+03  0.0000E+00  0.0000E+00  0.0000E+00  0.0000E+00  0.1034E+02  0.3845E+02  0.0000E+00  0.0000E+00  0.0000E+00  0.0000E+00  0.0000E+00  0.0000E+00  0.0000E+00  0.0000E+00  0.0000E+00  0.0000E+00  0.0000E+00  0.0000E+00  0.0000E+00  0.0000E+00  0.0000E+00  0.0000E+00  0.0000E+00  0.1373E+06  0.1955E+04  0.0000E+00  0.0000E+00
REACH   19        0     8  0.2538E+04  0.1034E+01  0.8493E+00  0.1791E+00  0.0000E+00  0.7015E+04  0.7015E+04  0.1809E+03  0.2565E+04  0.2305E+04  0.1253E+04  0.1076E+04  0.5336E+05  0.5192E+05  0.0000E+00  0.1562E+03  0.0000E+00  0.0000E+00  0.8253E+01  0.2412E+02  0.0000E+00  0.0000E+00  0.0000E+00  0.0000E+00  0.0000E+00  0.6824E+01  0.0000E+00  0.0000E+00  0.0000E+00  0.0000E+00  0.0000E+00  0.0000E+00  0.0000E+00  0.0000E+00  0.0000E+00  0.0000E+00  0.0000E+00  0.0000E+00  0.0000E+00  0.0000E+00  0.0000E+00  0.0000E+00  0.0000E+00  0.5439E+05  0.1100E+04  0.0000E+00  0.0000E+00
REACH   20        0     8  0.1982E+04  0.6572E+00  0.4288E+00  0.2158E+00  0.0000E+00  0.7777E+04  0.7777E+04  0.3145E+03  0.1075E+04  0.8804E+03  0.5866E+03  0.4435E+03  0.1463E+05  0.1372E+05  0.0000E+00  0.1060E+03  0.0000E+00  0.1433E-02  0.2693E+01  0.7942E+01  0.0000E+00  0.0000E+00  0.0000E+00  0.0000E+00  0.0000E+00  0.3518E+01  0.0000E+00  0.0000E+00  0.0000E+00  0.0000E+00  0.0000E+00  0.0000E+00  0.0000E+00  0.0000E+00  0.0000E+00  0.0000E+00  0.0000E+00  0.0000E+00  0.0000E+00  0.0000E+00  0.0000E+00  0.0000E+00  0.0000E+00  0.1471E+05  0.4514E+03  0.0000E+00  0.0000E+00
